ðŸ’§ðŸ§™ðŸ’¦ðŸŒŠ  <-These symbols help text editors identify file as Unicode UTF8.
                    UTF8 is not necessary to view numerical results, but no UTF8 support can have artifacts where non-ascii symbols are used (such as the degree symbol).


MODFLOW-OWHM v2.3.0

      MMMMMMM                                       MM      MMM     MM
    MMM     MMM    MM      M   MMMMMMMM             LM     DM M     ML     MM     MMMMMMMMM  MMMMMMMM  MMMMMMMM
   MM         MM   MMM     M   MM                    MM    MM M     M     MMMM        M      M         MM     NM
   MM         MM   MM M    M   MM                    MM    M  MM   MM    MM  MM       M      M         MM      M
   MM         MM   MM  M   M   MMMMMMMM               MN  MM   M   MM   MM    MM      M      MMMMMMM   MMMMMMMMM
   MM         MM   MM   M  M   MM         MMMMMMM     MM  M    MM MM    MMMMMMMM      M      M         MM   MM
   MM         MM   MM    M M   MM                     LM MM    NM MM   MM      MM     M      M         MM    MM
    MM       NM    MM     MM   MM                      M M      M M   MN        MM    M      M         MM     MM
     MMMMMMMMN     MM      M   MMMMMMMM                7MM      7MM  MN          MM   M      MMMMMMMM  MM      MM


                        MODFLOW
            ONE-WATER HYDROLOGIC-FLOW MODEL

    U.S. Geological Survey Modular Finite-Difference
           Conjunctive Use Simulation Program

                      Version 2.3

 Release: 0

 Includes the following base versions with enhancements:

          MODFLOW-2005 Version 1.12
          MODFLOW-FMP  Version 4.1
          MODFLOW-SWR  Version 1.04
          MODFLOW-SWI  Version 2.0
          MODFLOW-LGR  Version 2.0
          MODFLOW-NWT  Version 1.3
          MODFLOW-CFP  Version 1.09.57
                  SWO  Version 1.0

------------------------------------------------------------------------------------
USGS Software Disclaimer:                                                          |
                                                                                   |
   No warranty, expressed or implied, is made by the USGS or the U.S. Government   |
   as to the functionality of the software and related material nor shall the      |
   fact of release constitute any such warranty.                                   |
                                                                                   |
   The software is provided on the condition that neither the USGS nor             |
   the U.S. Government shall be held liable for any damages resulting from the     |
   authorized or unauthorized use of the software.                                 |
                                                                                   |
   Newer versions may be present at the official code and download repository:     |
      https://code.usgs.gov/modflow/mf-owhm                                        |
                                                                                   |
------------------------------------------------------------------------------------

âˆ™âˆ™âˆ™âˆ™âˆ™âˆ™âˆ™âˆ™âˆ™âˆ™âˆ™âˆ™âˆ™âˆ™âˆ™âˆ™âˆ™âˆ™âˆ™âˆ™âˆ™âˆ™âˆ™âˆ™âˆ™âˆ™âˆ™âˆ™âˆ™âˆ™âˆ™âˆ™âˆ™âˆ™âˆ™âˆ™âˆ™âˆ™âˆ™âˆ™âˆ™âˆ™âˆ™âˆ™âˆ™âˆ™âˆ™âˆ™âˆ™âˆ™âˆ™âˆ™âˆ™âˆ™âˆ™âˆ™âˆ™âˆ™âˆ™âˆ™âˆ™âˆ™
    OneWater Simulation Initiated at  
âˆ™âˆ™âˆ™âˆ™âˆ™âˆ™âˆ™âˆ™âˆ™âˆ™âˆ™âˆ™âˆ™âˆ™âˆ™âˆ™âˆ™âˆ™âˆ™âˆ™âˆ™âˆ™âˆ™âˆ™âˆ™âˆ™âˆ™âˆ™âˆ™âˆ™âˆ™âˆ™âˆ™âˆ™âˆ™âˆ™âˆ™âˆ™âˆ™âˆ™âˆ™âˆ™âˆ™âˆ™âˆ™âˆ™âˆ™âˆ™âˆ™âˆ™âˆ™âˆ™âˆ™âˆ™âˆ™âˆ™âˆ™âˆ™âˆ™âˆ™âˆ™âˆ™


 LIST FILE: ./output/q_turb.lst
      UNIT: 7

OPENING DATA FILES [DATA AND DATA(BINARY)]

OPENED DATA FILE ON UNIT     50 WITH FILENAME OF: ./output/q_turb.cbc
OPENED DATA FILE ON UNIT     51 WITH FILENAME OF: ./output/q_turb.hds

OPENING PACKAGES

BAS6 PACKAGE OPENED.
DIS  PACKAGE OPENED.
BCF  PACKAGE OPENED.
PCG  PACKAGE OPENED.
CFP  PACKAGE OPENED.
OC   PACKAGE OPENED.

NOTIFICATION: A FILE UNIT NUMBER WAS FOUND FOR EITHER THE LIST FILE OR A PACAKGE.
IT WILL BE USED EVEN THOUGH UNIT NUMBERS FOR THE LIST FILE AND PACKAGES ARE NOW OPTIONAL.
[IT IS RECOMMENDED TO STILL USE A UNIT NUMBER FOR DATA and DATA(BINARY) ]


 BAS -- BASIC PACKAGE, VERSION OWHM INPUT READ FROM UNIT     1
 
MODFLOW was compiled using uniform precision (Precision => Number of meaningful digits in numbers)
Precision of REAL and DOUBLE PRECISION variables: 15

 DISCRETIZATION INPUT DATA READ FROM UNIT    2

*** DIS COORDINATE SYSTEM NOT SEPECIFIED ***
DEFAULT VALUES APPLIED ARE 0Â° ROTATION
WITH THE ORIGIN (0,0) LOCATED AT THE MODEL'S LOWER LEFT CORNER




DIS COORDINATE SYSTEM SEPECIFIED WITH:
GRID ROTATION OF 0.0Â°
WITH THE ORIGIN LOCATED AT THE OUTER MOST CORNER OF MODEL CELL [4,1] WITH:
X-COORDINATE:0.0
Y-COORDINATE:0.0
    1 LAYERS         4 ROWS         5 COLUMNS
      5 STRESS PERIOD(S) IN SIMULATION
 MODEL TIME UNIT IS SECONDS
 MODEL LENGTH UNIT IS METERS
  Confining bed flag for each layer:
   0

                     DELR =   10.0000    

                     DELC =   10.0000    

 TOP ELEVATION OF LAYER 1 =   10.0000    

   MODEL LAYER BOTTOM EL. =   0.00000     FOR LAYER   1


 STRESS PERIOD     LENGTH       TIME STEPS     MULTIPLIER FOR DELT    SS FLAG  (OPTIONAL TIME STEP LENGTH)
 ---------------------------------------------------------------------------------------------------
        1         100.0000         10                  1.00000         SS
        2         100.0000         10                  1.00000         TR
        3         100.0000         10                  1.00000         TR
        4         100.0000         10                  1.00000         TR
        5         100.0000         10                  1.00000         TR

 COMBINED STEADY-STATE AND TRANSIENT SIMULATION




-- READING BAS PACKAGE INPUT --

#1 layer, 4 rows, 5 columns; transient


 THE BAS PACKAGE NOW DEFAULTS TO FREE FORMAT.
 USE OPTION "NOFREE" TO DISABLE FREE FORMAT.

 NOW READING BAS OPTIONS

 Found Option: COMPACT

 Found Option: NO_SHOWPROGRESS

 Found Option: BUDGETDB

 Found Option: PRINT_HEAD
                 NPER       ./output/Head_NPER.txt

 Found Option: CUMULATIVE_HEAD_CHANGE
                 Cumulative sum of absolute head differences for the entire model.
                 This is a diagnostic feature meant for comparing MF-OWHM code versions with the same model input (software unit test).


 Setting up PRINT_HEAD option for 
    SP    TS   FILE
     5    10   ./output/Head_NPER.txt

 The total simulation limit for the number PARAMETERs defined is: 
     Max number of PARAMETERs (MXPAR)  is       2000
     Max number of INSTANCEs  (MXINST) is      50000
     Max number of CLUSTERs   (MXCLST) is    2000000




                     BOUNDARY ARRAY FOR LAYER   1
 READING ON UNIT    1 WITH FORMAT: (5I3)               

      1 2 3 4 5
 ..............
   1  1 1 1 1 1
   2  1 1 1 1 1
   3  1 1 1 1 1
   4  * * * * *

 AQUIFER HEAD WILL BE SET TO -999.00000 AT ALL NO-FLOW NODES (IBOUND=0).




                       INITIAL HEAD FOR LAYER   1
 READING ON UNIT    1 WITH FORMAT: (5G11.4)            

           1          2          3          4          5
 .......................................................
   1    10.0       10.0       10.0       10.0       10.0    
   2    10.0       10.0       10.0       10.0       10.0    
   3    10.0       10.0       10.0       10.0       10.0    
   4    10.0       10.0       10.0       10.0       10.0    

 OUTPUT CONTROL IS SPECIFIED ONLY AT TIME STEPS FOR WHICH OUTPUT IS DESIRED
 HEADS WILL BE SAVED WITH FORMAT: (5F8.4)             
 SAVED HEADS WILL BE LABELED
 HEAD PRINT FORMAT CODE IS  21    DRAWDOWN PRINT FORMAT CODE IS   0
 HEADS WILL BE SAVED ON UNIT   51    DRAWDOWNS WILL BE SAVED ON UNIT    0  WATER BUDGETs WILL BE SAVED ON UNIT 

 BCF -- BLOCK-CENTERED FLOW PACKAGE, VERSION 7, 5/2/2005
         INPUT READ FROM UNIT 11
 TRANSIENT SIMULATION
 CELL-BY-CELL FLOWS WILL BE SAVED ON UNIT 50
 HEAD AT CELLS THAT CONVERT TO DRY=   999.00    
 WETTING CAPABILITY IS NOT ACTIVE
      LAYER  LAYER-TYPE CODE     INTERBLOCK T
      --------------------------------------------
         1            3          0 -- HARMONIC    

 COLUMN TO ROW ANISOTROPY =   1.00000    

     PRIMARY STORAGE COEF =  0.200000     FOR LAYER   1

    HYD. COND. ALONG ROWS =  7.000000E-05 FOR LAYER   1

   SECONDARY STORAGE COEF =  7.000000E-05 FOR LAYER   1

 PCG -- CONJUGATE-GRADIENT SOLUTION PACKAGE, VERSION OWHM
 MAXIMUM OF     20 CALLS OF SOLUTION ROUTINE
 MAXIMUM OF     10 INTERNAL ITERATIONS PER CALL TO SOLUTION ROUTINE
 MATRIX PRECONDITIONING TYPE :    1
 IHCOFADD option -- When an active cell is surrounded by dry cells, convert
 the cell to dry only if storage and head-dependent boundary flow are 0.



                                    SOLUTION BY THE CONJUGATE-GRADIENT METHOD
                                   -------------------------------------------
                    MAXIMUM NUMBER OF CALLS TO PCG ROUTINE =       20
                        MAXIMUM ITERATIONS PER CALL TO PCG =       10
                               MATRIX PRECONDITIONING TYPE =        1
        RELAXATION FACTOR (ONLY USED WITH PRECOND. TYPE 1) =    0.10000E+01
 PARAMETER OF POLYNOMIAL PRECOND. = 2 (2) OR IS CALCULATED :        2
                         HEAD CHANGE CRITERION FOR CLOSURE =    0.10000E-06
                     RESIDUAL CHANGE CRITERION FOR CLOSURE =    0.10000E+01
            PCG HEAD AND RESIDUAL CHANGE PRINTOUT INTERVAL =        5
     PRINTING FROM SOLVER IS LIMITED(1) OR SUPPRESSED (>1) =        0
                            STEADY-STATE DAMPING PARAMETER =    0.10000E+01
                               TRANSIENT DAMPING PARAMETER =    0.10000E+01
 
 CFP1AR READING FROM UNIT          16
 CFP NOW REQUIRES COMMENT LINES TO BE PRECEDED BY A #

 PROCESSING CFP OPTION BLOCK
      OUT_DIRECTORY option found
          CFP node*.out and tube*.out will be placed in: "./output/"
 ---------------------------------
 CFP MODE 1 IS ACTIVE (PIPES) 
 ---------------------------------

#data for the conduit system
#number of nodes / tubes / layers

    NUMBER OF NODES IS     4
    NUMBER OF TUBES IS     3
    NUMBER OF LAYERS IS    1
 GRAVITATIONAL CONSTANT (G) COMPUTED 

#temperature

 WATER TEMPERATURE, IN DEGREES CELCIUS, IS    10.0000000000000     
  KINEMATIC VISCOSITY [L^2/T]=  1.307568525664806E-006

#No  mc mr ml Nb1  Nb2  Nb3  Nb4 Nb5  Nb6 tb1 tb2 tb3 tb4 tb5 tb6

 
  NBR-ARRAY
    NO_N,  MC,  MR,  ML, NB1, NB2, NB3, NB4, NB5, NB6, PB1, PB2, PB3, PB4, PB5, PB6
         1      3     1     1      2     0     0     0     0     0      1     0     0     0     0     0
         2      3     2     1      1     3     0     0     0     0      1     2     0     0     0     0
         3      3     3     1      2     4     0     0     0     0      2     3     0     0     0     0
         4      3     4     1      3     0     0     0     0     0      3     0     0     0     0     0

#Node elevations, two possibilities
#first: node #, elevation
#second: number of nodes, centroid distance

  NODE ELEVATIONS:
           1   5.00000000000000     
           2   5.00000000000000     
           3   5.00000000000000     
           4   5.00000000000000     

#surface dependent exchange (set 1) or constant exchange (set 0)


#criterion for convergence


#maximum number for loop iterations


#parameter of relaxation


#Newton Rhapson Print flag

 P_NR               1
 L_NTS              0
 FINISHED READING NEWTON RAPHSON ITERATION CONTROLS
 READING NODE AND TUBE DATA

#data of tube parameters:
#no. diameter  tort    roughness  lReynolds   tReynolds

NO_P   DIAMETER  TORTUOSITY  RHEIGHT  LCRITREY_P TCRITREY_P
   1.     1.000        1.00   0.0000     2000.00    4000.00
   2.     1.000        1.00   0.0000     2000.00    4000.00
   3.     1.000        1.00   0.0000     2000.00    4000.00

#node heads (if head unequal -1 the head is fixed)

 READING NODE BOUNDARY CONDITIONS (FIXED HEADS, IBOUNDS, AND FBCs)
  NODE  HEAD AND/OR IBOUND
 FBC OPTION NOT ENABLED, READING ORIGINAL FORMULATION INPUT:
        NO_N  N_HEAD
           1   10.0000000000000     
           2   20.1000000000000     
           3  -1.00000000000000     
           4  -1.00000000000000     
 SURFACE-AREA DEPENDENT EXCHANGE IS NOT ACTIVE
 READING EXCHANGE COEFFICIENTS
 NODE_I  K_EXCHANGE(I)
   1      0.000    
   2      0.000    
   3      0.000    
   4      0.000    
 PROCESSING AND CHECKING CONDUIT-NETWORK
 TESTING THE CONDUIT NETWORK:
    CONSTANT HEAD NODE    1 OF CONDUIT NETWORK IS NOT CONSTANT-HEAD MODFLOW CELL
    CONSTANT HEAD NODE    2 OF CONDUIT NETWORK IS NOT CONSTANT-HEAD MODFLOW CELL
  NO ERRORS DETECTED           `:) 
           2  WARNING(S) DETECTED `:| CHECK CONDUIT-GEOMETRY INPUT 
 BEGINNING CFPM1 SUBROUTINE DETERM_TUB
 BEGINNING CFPM1 SUBROUTINE GEOCALC THAT CALCULATES XYZ COORDINATES OF NODES
 TOP-ARRAY / BOT-ARRAY:
   10.0000000000000            0.000000000000000E+000
  NODE   COLUMN    ROW    LAY      X         Y            Z      
      1      3      1      1     25.0000     5.00000     5.00000    
      2      3      2      1     25.0000     15.0000     5.00000    
      3      3      3      1     25.0000     25.0000     5.00000    
      4      3      4      1     25.0000     35.0000     5.00000    
 
 BEGINNING CFPM1 LENGTH_CAL SUBROUTINE
 BEGINNING CFPM1 ROUGH_CAL SUBROUTINE


########################################################################################################

                           WARNING_MESSAGE

         THE FOLLOWING COMMENTS WERE PASSED TO THE WARNING ROUTINE

THE DESCRIPTION OF THE WARNING IS:

DIS PACKAGE: THE GROUND SURFACE ELEVATION WAS NOT SPECIFIED WITH THE KEYWORD "SURFACE_ELEVATION"

BEFORE LOADING THE "TOP" ARRAY FOR LAYER 1
NOR WAS IT DEFINED WITH ANOTHER PACKAGE   (e.g. FMPs GLOBAL DIMENSION KEYWORD "SURFACE_ELEVATION")

OneWater WILL SET THE GROUND SURFACE ELEVATION (GSE)
TO THE TOP ELEVATION OF THE UPPER MOST ACTIVE CELL OR THE DIS TOP OF LAY1.

NOTE THAT SFR DOES USE GSE FOR ALL DIVERSION SEGMENTS
   WHEN "IRDFLG" IS SET TO 2 or -2.

########################################################################################################



1
                            STRESS PERIOD NO.      1, LENGTH =   100.0000    
                            -----------------------------------------------

                              NUMBER OF TIME STEPS =    10

                               MULTIPLIER FOR DELT =     1.000

                            INITIAL TIME STEP SIZE =   10.00000    

PARAMETERS HAVE BEEN USED IN PACKAGES

THE CURRENT STORAGE FOR PARAMETERS IS: 
No. PARAMETER=         0 WITH MAX STORAGE (MXPAR)  OF      2000
No. CLUSTERS =         0 WITH MAX STORAGE (MXCLST) OF   2000000
No. INSTANCES=         0 WITH MAX STORAGE (MXINST) OF     50000

YOU CAN INCREASE/DECREASE STORAGE WITH BAS OPTION:
MAXPARAM  MXPAR  MXCLST MXINST

FYI, YOU CAN REDUCE RAM USUAGE WITH BAS OPTION
(NOTE THE THREE NUMBERS ARE A MINUMUM SIZE):
   MAXPARAM          1         1         1

 COMPUTE NODE LENGTH
 NODE I     L_NODE (I)
   1        5.000
   2       10.000
   3       10.000
   4        5.000
 
 SOLVING FOR HEAD 
  LAMINAR PRECALCULATION
TUBE   1 SWITCH LAM -> TURB: LAM_RE (  0.1810E+12) >= TCRITREY:   4000.     TURB_RE:  0.3720E+08
MODFLOW ITER.#  NEWTON-RAPHSON ITER.#   MAXIMUM NODE HEAD CHANGE
         1                   1                  0.0000000000
         1                   2                  0.0000000000
         1                   3                  0.0000000000
 INITIAL HNEW IS AN EXACT SOLUTION.


Solver Convergence Information:
                              HClose:  0.0
                              RClose:  3.4694470E-18
                           L2-RClose:  9.1792938E-18
                         Rel-Vol-Err:  0.0
 
MODFLOW ITER.#  NEWTON-RAPHSON ITER.#   MAXIMUM NODE HEAD CHANGE
         1                   1                  0.0000000000
         1                   2                  0.0000000000
         1                   3                  0.0000000000

 NO OUTPUT CONTROL FOR STRESS PERIOD      1   TIME STEP     1
 
 
 CFPM1 CRITERION OF CONVERGENCE:     0.1000000E-05
 CFPM1 MAXIMUM NUMBER OF ITERATIONS:   100
 
 
 CFPM1 RESULTS +++++++++++++++++++++++++++++++++++++++++++++++++++++++
 
 STRESS PERIOD/TIME STEP           1           1
 
NUMBER OF NEWTON RHAPSON ITERATIONS:     3
 
 ------- RESULTS OF FLOW CALCULATION -------
 
NODE#  NODE HEAD[M]   MATRIX HEAD [M] EXCHANGE [M^3/S]      CAD STORAGE    CADS RECHARGE         PFPSFLOW  DIRECT RECHARGE            QWELL             FHLQ           CAUCHY        CAUCHY LQ              QLH             QFIX
    1  10.00    FIX      10.00000         0.000000         0.000000         0.000000         0.000000         0.000000         0.000000         0.000000         0.000000         0.000000         0.000000        -38.20273    
    2  20.10    FIX      10.00000         0.000000         0.000000         0.000000         0.000000         0.000000         0.000000         0.000000         0.000000         0.000000         0.000000         38.20273    
    3  20.10000          10.00000         0.000000         0.000000         0.000000         0.000000         0.000000         0.000000         0.000000         0.000000         0.000000         0.000000         0.000000    
    4  20.10000          10.00000         0.000000         0.000000         0.000000         0.000000         0.000000         0.000000         0.000000         0.000000         0.000000         0.000000         0.000000    
 
TUBE  B  E  FLOW          Q [M^3/SEC]     DIAM.[M]        LEN.[M]        RE         RESIDENCE TIME [S]
   1   1   2   TURB.       -38.20273        1.00000       10.00000 37199750.38085        0.20559
    WARNING! TUBE    2 ACTIVE BUT NO FLOW
   2   2   3   LAMI.         0.00000        1.00000       10.00000        0.00000        0.00000
    WARNING! TUBE    3 ACTIVE BUT NO FLOW
   3   3   4   LAMI.         0.00000        1.00000       10.00000        0.00000        0.00000
 

    BUDGET OF THE PIPE SYSTEM OF TIMESTEP    1 IN STRESS PERIOD    1
------------------------------------------------------------------------

  TOTAL SIMULATION TIME   10.0000000000000      S
 
        CUMULATIVE VALUES (L**3)        RATES THIS TIME STEP (L**3/T)

            IN:                               IN:
     CONSTANT HEAD =   382.02727          CONSTANT HEAD =   38.202727    
   MATRIX EXCHANGE =   0.0000000        MATRIX EXCHANGE =   0.0000000    
     PIPE RECHARGE =   0.0000000          PIPE RECHARGE =   0.0000000    
       PFP STORAGE =   0.0000000            PFP STORAGE =   0.0000000    

     CUMULATIVE IN =   382.02727               TOTAL IN =   38.202727    

           OUT:                               OUT:
     CONSTANT HEAD =   382.02727          CONSTANT HEAD =   38.202727    
   MATRIX EXCHANGE =   0.0000000        MATRIX EXCHANGE =   0.0000000    
     PIPE RECHARGE =   0.0000000          PIPE RECHARGE =   0.0000000    
       PFP STORAGE =   0.0000000            PFP STORAGE =   0.0000000    

    CUMULATIVE OUT =   382.02727              TOTAL OUT =   38.202727    

          IN - OUT =   0.0000000               IN - OUT =   0.0000000    
     PERCENT ERROR =  0.00                PERCENT ERROR =  0.00


 
 ------------------------NODE WATER BUDGET-----------------------
  STRESS PERIOD           1  TIME STEP           1
 TOTAL SIMULATION TIME   10.0000000000000     
 
 FLOW TO THE NODE IN M^3/S
 
 NODE     FIXED HEAD     RECHARGE        QWELL  MATRIX EXCH      STORAGE      TUBE_IN     TUBE_OUT         CADS     FHLQ(LQ)       CAUCHY   CAUCHY(LQ)          QLH     IN - OUT
    1    -38.203       0.0000       0.0000       0.0000       0.0000       38.203       0.0000       0.0000       0.0000       0.0000       0.0000       0.0000       0.0000    
    2     38.203       0.0000       0.0000       0.0000       0.0000       0.0000      -38.203       0.0000       0.0000       0.0000       0.0000       0.0000       0.0000    
    3     0.0000       0.0000       0.0000       0.0000       0.0000       0.0000       0.0000       0.0000       0.0000       0.0000       0.0000       0.0000       0.0000    
    4     0.0000       0.0000       0.0000       0.0000       0.0000       0.0000       0.0000       0.0000       0.0000       0.0000       0.0000       0.0000       0.0000    


     1 CALLS TO PCG ROUTINE FOR TIME STEP   1 IN STRESS PERIOD    1
     0 TOTAL ITERATIONS
 
 SOLVING FOR HEAD 
MODFLOW ITER.#  NEWTON-RAPHSON ITER.#   MAXIMUM NODE HEAD CHANGE
         1                   1                  0.0000000000
         1                   2                  0.0000000000
         1                   3                  0.0000000000
 INITIAL HNEW IS AN EXACT SOLUTION.


Solver Convergence Information:
                              HClose:  0.0
                              RClose:  3.4694470E-18
                           L2-RClose:  9.1792938E-18
                         Rel-Vol-Err:  0.0
 
MODFLOW ITER.#  NEWTON-RAPHSON ITER.#   MAXIMUM NODE HEAD CHANGE
         1                   1                  0.0000000000
         1                   2                  0.0000000000
         1                   3                  0.0000000000

 NO OUTPUT CONTROL FOR STRESS PERIOD      1   TIME STEP     2
 
 
 CFPM1 CRITERION OF CONVERGENCE:     0.1000000E-05
 CFPM1 MAXIMUM NUMBER OF ITERATIONS:   100
 
 
 CFPM1 RESULTS +++++++++++++++++++++++++++++++++++++++++++++++++++++++
 
 STRESS PERIOD/TIME STEP           1           2
 
NUMBER OF NEWTON RHAPSON ITERATIONS:     3
 
 ------- RESULTS OF FLOW CALCULATION -------
 
NODE#  NODE HEAD[M]   MATRIX HEAD [M] EXCHANGE [M^3/S]      CAD STORAGE    CADS RECHARGE         PFPSFLOW  DIRECT RECHARGE            QWELL             FHLQ           CAUCHY        CAUCHY LQ              QLH             QFIX
    1  10.00    FIX      10.00000         0.000000         0.000000         0.000000         0.000000         0.000000         0.000000         0.000000         0.000000         0.000000         0.000000        -38.20273    
    2  20.10    FIX      10.00000         0.000000         0.000000         0.000000         0.000000         0.000000         0.000000         0.000000         0.000000         0.000000         0.000000         38.20273    
    3  20.10000          10.00000         0.000000         0.000000         0.000000         0.000000         0.000000         0.000000         0.000000         0.000000         0.000000         0.000000         0.000000    
    4  20.10000          10.00000         0.000000         0.000000         0.000000         0.000000         0.000000         0.000000         0.000000         0.000000         0.000000         0.000000         0.000000    
 
TUBE  B  E  FLOW          Q [M^3/SEC]     DIAM.[M]        LEN.[M]        RE         RESIDENCE TIME [S]
   1   1   2   TURB.       -38.20273        1.00000       10.00000 37199750.38085        0.20559
    WARNING! TUBE    2 ACTIVE BUT NO FLOW
   2   2   3   LAMI.         0.00000        1.00000       10.00000        0.00000        0.00000
    WARNING! TUBE    3 ACTIVE BUT NO FLOW
   3   3   4   LAMI.         0.00000        1.00000       10.00000        0.00000        0.00000
 

    BUDGET OF THE PIPE SYSTEM OF TIMESTEP    2 IN STRESS PERIOD    1
------------------------------------------------------------------------

  TOTAL SIMULATION TIME   20.0000000000000      S
 
        CUMULATIVE VALUES (L**3)        RATES THIS TIME STEP (L**3/T)

            IN:                               IN:
     CONSTANT HEAD =   764.05454          CONSTANT HEAD =   38.202727    
   MATRIX EXCHANGE =   0.0000000        MATRIX EXCHANGE =   0.0000000    
     PIPE RECHARGE =   0.0000000          PIPE RECHARGE =   0.0000000    
       PFP STORAGE =   0.0000000            PFP STORAGE =   0.0000000    

     CUMULATIVE IN =   764.05454               TOTAL IN =   38.202727    

           OUT:                               OUT:
     CONSTANT HEAD =   764.05454          CONSTANT HEAD =   38.202727    
   MATRIX EXCHANGE =   0.0000000        MATRIX EXCHANGE =   0.0000000    
     PIPE RECHARGE =   0.0000000          PIPE RECHARGE =   0.0000000    
       PFP STORAGE =   0.0000000            PFP STORAGE =   0.0000000    

    CUMULATIVE OUT =   764.05454              TOTAL OUT =   38.202727    

          IN - OUT =   0.0000000               IN - OUT =   0.0000000    
     PERCENT ERROR =  0.00                PERCENT ERROR =  0.00


 
 ------------------------NODE WATER BUDGET-----------------------
  STRESS PERIOD           1  TIME STEP           2
 TOTAL SIMULATION TIME   20.0000000000000     
 
 FLOW TO THE NODE IN M^3/S
 
 NODE     FIXED HEAD     RECHARGE        QWELL  MATRIX EXCH      STORAGE      TUBE_IN     TUBE_OUT         CADS     FHLQ(LQ)       CAUCHY   CAUCHY(LQ)          QLH     IN - OUT
    1    -38.203       0.0000       0.0000       0.0000       0.0000       38.203       0.0000       0.0000       0.0000       0.0000       0.0000       0.0000       0.0000    
    2     38.203       0.0000       0.0000       0.0000       0.0000       0.0000      -38.203       0.0000       0.0000       0.0000       0.0000       0.0000       0.0000    
    3     0.0000       0.0000       0.0000       0.0000       0.0000       0.0000       0.0000       0.0000       0.0000       0.0000       0.0000       0.0000       0.0000    
    4     0.0000       0.0000       0.0000       0.0000       0.0000       0.0000       0.0000       0.0000       0.0000       0.0000       0.0000       0.0000       0.0000    
     1 CALLS TO PCG ROUTINE FOR TIME STEP   2 IN STRESS PERIOD    1
     0 TOTAL ITERATIONS
 
 SOLVING FOR HEAD 
MODFLOW ITER.#  NEWTON-RAPHSON ITER.#   MAXIMUM NODE HEAD CHANGE
         1                   1                  0.0000000000
         1                   2                  0.0000000000
         1                   3                  0.0000000000
 INITIAL HNEW IS AN EXACT SOLUTION.


Solver Convergence Information:
                              HClose:  0.0
                              RClose:  3.4694470E-18
                           L2-RClose:  9.1792938E-18
                         Rel-Vol-Err:  0.0
 
MODFLOW ITER.#  NEWTON-RAPHSON ITER.#   MAXIMUM NODE HEAD CHANGE
         1                   1                  0.0000000000
         1                   2                  0.0000000000
         1                   3                  0.0000000000

 NO OUTPUT CONTROL FOR STRESS PERIOD      1   TIME STEP     3
 
 
 CFPM1 CRITERION OF CONVERGENCE:     0.1000000E-05
 CFPM1 MAXIMUM NUMBER OF ITERATIONS:   100
 
 
 CFPM1 RESULTS +++++++++++++++++++++++++++++++++++++++++++++++++++++++
 
 STRESS PERIOD/TIME STEP           1           3
 
NUMBER OF NEWTON RHAPSON ITERATIONS:     3
 
 ------- RESULTS OF FLOW CALCULATION -------
 
NODE#  NODE HEAD[M]   MATRIX HEAD [M] EXCHANGE [M^3/S]      CAD STORAGE    CADS RECHARGE         PFPSFLOW  DIRECT RECHARGE            QWELL             FHLQ           CAUCHY        CAUCHY LQ              QLH             QFIX
    1  10.00    FIX      10.00000         0.000000         0.000000         0.000000         0.000000         0.000000         0.000000         0.000000         0.000000         0.000000         0.000000        -38.20273    
    2  20.10    FIX      10.00000         0.000000         0.000000         0.000000         0.000000         0.000000         0.000000         0.000000         0.000000         0.000000         0.000000         38.20273    
    3  20.10000          10.00000         0.000000         0.000000         0.000000         0.000000         0.000000         0.000000         0.000000         0.000000         0.000000         0.000000         0.000000    
    4  20.10000          10.00000         0.000000         0.000000         0.000000         0.000000         0.000000         0.000000         0.000000         0.000000         0.000000         0.000000         0.000000    
 
TUBE  B  E  FLOW          Q [M^3/SEC]     DIAM.[M]        LEN.[M]        RE         RESIDENCE TIME [S]
   1   1   2   TURB.       -38.20273        1.00000       10.00000 37199750.38085        0.20559
    WARNING! TUBE    2 ACTIVE BUT NO FLOW
   2   2   3   LAMI.         0.00000        1.00000       10.00000        0.00000        0.00000
    WARNING! TUBE    3 ACTIVE BUT NO FLOW
   3   3   4   LAMI.         0.00000        1.00000       10.00000        0.00000        0.00000
 

    BUDGET OF THE PIPE SYSTEM OF TIMESTEP    3 IN STRESS PERIOD    1
------------------------------------------------------------------------

  TOTAL SIMULATION TIME   30.0000000000000      S
 
        CUMULATIVE VALUES (L**3)        RATES THIS TIME STEP (L**3/T)

            IN:                               IN:
     CONSTANT HEAD =   1146.0818          CONSTANT HEAD =   38.202727    
   MATRIX EXCHANGE =   0.0000000        MATRIX EXCHANGE =   0.0000000    
     PIPE RECHARGE =   0.0000000          PIPE RECHARGE =   0.0000000    
       PFP STORAGE =   0.0000000            PFP STORAGE =   0.0000000    

     CUMULATIVE IN =   1146.0818               TOTAL IN =   38.202727    

           OUT:                               OUT:
     CONSTANT HEAD =   1146.0818          CONSTANT HEAD =   38.202727    
   MATRIX EXCHANGE =   0.0000000        MATRIX EXCHANGE =   0.0000000    
     PIPE RECHARGE =   0.0000000          PIPE RECHARGE =   0.0000000    
       PFP STORAGE =   0.0000000            PFP STORAGE =   0.0000000    

    CUMULATIVE OUT =   1146.0818              TOTAL OUT =   38.202727    

          IN - OUT =   0.0000000               IN - OUT =   0.0000000    
     PERCENT ERROR =  0.00                PERCENT ERROR =  0.00


 
 ------------------------NODE WATER BUDGET-----------------------
  STRESS PERIOD           1  TIME STEP           3
 TOTAL SIMULATION TIME   30.0000000000000     
 
 FLOW TO THE NODE IN M^3/S
 
 NODE     FIXED HEAD     RECHARGE        QWELL  MATRIX EXCH      STORAGE      TUBE_IN     TUBE_OUT         CADS     FHLQ(LQ)       CAUCHY   CAUCHY(LQ)          QLH     IN - OUT
    1    -38.203       0.0000       0.0000       0.0000       0.0000       38.203       0.0000       0.0000       0.0000       0.0000       0.0000       0.0000       0.0000    
    2     38.203       0.0000       0.0000       0.0000       0.0000       0.0000      -38.203       0.0000       0.0000       0.0000       0.0000       0.0000       0.0000    
    3     0.0000       0.0000       0.0000       0.0000       0.0000       0.0000       0.0000       0.0000       0.0000       0.0000       0.0000       0.0000       0.0000    
    4     0.0000       0.0000       0.0000       0.0000       0.0000       0.0000       0.0000       0.0000       0.0000       0.0000       0.0000       0.0000       0.0000    
     1 CALLS TO PCG ROUTINE FOR TIME STEP   3 IN STRESS PERIOD    1
     0 TOTAL ITERATIONS
 
 SOLVING FOR HEAD 
MODFLOW ITER.#  NEWTON-RAPHSON ITER.#   MAXIMUM NODE HEAD CHANGE
         1                   1                  0.0000000000
         1                   2                  0.0000000000
         1                   3                  0.0000000000
 INITIAL HNEW IS AN EXACT SOLUTION.


Solver Convergence Information:
                              HClose:  0.0
                              RClose:  3.4694470E-18
                           L2-RClose:  9.1792938E-18
                         Rel-Vol-Err:  0.0
 
MODFLOW ITER.#  NEWTON-RAPHSON ITER.#   MAXIMUM NODE HEAD CHANGE
         1                   1                  0.0000000000
         1                   2                  0.0000000000
         1                   3                  0.0000000000

 NO OUTPUT CONTROL FOR STRESS PERIOD      1   TIME STEP     4
 
 
 CFPM1 CRITERION OF CONVERGENCE:     0.1000000E-05
 CFPM1 MAXIMUM NUMBER OF ITERATIONS:   100
 
 
 CFPM1 RESULTS +++++++++++++++++++++++++++++++++++++++++++++++++++++++
 
 STRESS PERIOD/TIME STEP           1           4
 
NUMBER OF NEWTON RHAPSON ITERATIONS:     3
 
 ------- RESULTS OF FLOW CALCULATION -------
 
NODE#  NODE HEAD[M]   MATRIX HEAD [M] EXCHANGE [M^3/S]      CAD STORAGE    CADS RECHARGE         PFPSFLOW  DIRECT RECHARGE            QWELL             FHLQ           CAUCHY        CAUCHY LQ              QLH             QFIX
    1  10.00    FIX      10.00000         0.000000         0.000000         0.000000         0.000000         0.000000         0.000000         0.000000         0.000000         0.000000         0.000000        -38.20273    
    2  20.10    FIX      10.00000         0.000000         0.000000         0.000000         0.000000         0.000000         0.000000         0.000000         0.000000         0.000000         0.000000         38.20273    
    3  20.10000          10.00000         0.000000         0.000000         0.000000         0.000000         0.000000         0.000000         0.000000         0.000000         0.000000         0.000000         0.000000    
    4  20.10000          10.00000         0.000000         0.000000         0.000000         0.000000         0.000000         0.000000         0.000000         0.000000         0.000000         0.000000         0.000000    
 
TUBE  B  E  FLOW          Q [M^3/SEC]     DIAM.[M]        LEN.[M]        RE         RESIDENCE TIME [S]
   1   1   2   TURB.       -38.20273        1.00000       10.00000 37199750.38085        0.20559
    WARNING! TUBE    2 ACTIVE BUT NO FLOW
   2   2   3   LAMI.         0.00000        1.00000       10.00000        0.00000        0.00000
    WARNING! TUBE    3 ACTIVE BUT NO FLOW
   3   3   4   LAMI.         0.00000        1.00000       10.00000        0.00000        0.00000
 

    BUDGET OF THE PIPE SYSTEM OF TIMESTEP    4 IN STRESS PERIOD    1
------------------------------------------------------------------------

  TOTAL SIMULATION TIME   40.0000000000000      S
 
        CUMULATIVE VALUES (L**3)        RATES THIS TIME STEP (L**3/T)

            IN:                               IN:
     CONSTANT HEAD =   1528.1091          CONSTANT HEAD =   38.202727    
   MATRIX EXCHANGE =   0.0000000        MATRIX EXCHANGE =   0.0000000    
     PIPE RECHARGE =   0.0000000          PIPE RECHARGE =   0.0000000    
       PFP STORAGE =   0.0000000            PFP STORAGE =   0.0000000    

     CUMULATIVE IN =   1528.1091               TOTAL IN =   38.202727    

           OUT:                               OUT:
     CONSTANT HEAD =   1528.1091          CONSTANT HEAD =   38.202727    
   MATRIX EXCHANGE =   0.0000000        MATRIX EXCHANGE =   0.0000000    
     PIPE RECHARGE =   0.0000000          PIPE RECHARGE =   0.0000000    
       PFP STORAGE =   0.0000000            PFP STORAGE =   0.0000000    

    CUMULATIVE OUT =   1528.1091              TOTAL OUT =   38.202727    

          IN - OUT =   0.0000000               IN - OUT =   0.0000000    
     PERCENT ERROR =  0.00                PERCENT ERROR =  0.00


 
 ------------------------NODE WATER BUDGET-----------------------
  STRESS PERIOD           1  TIME STEP           4
 TOTAL SIMULATION TIME   40.0000000000000     
 
 FLOW TO THE NODE IN M^3/S
 
 NODE     FIXED HEAD     RECHARGE        QWELL  MATRIX EXCH      STORAGE      TUBE_IN     TUBE_OUT         CADS     FHLQ(LQ)       CAUCHY   CAUCHY(LQ)          QLH     IN - OUT
    1    -38.203       0.0000       0.0000       0.0000       0.0000       38.203       0.0000       0.0000       0.0000       0.0000       0.0000       0.0000       0.0000    
    2     38.203       0.0000       0.0000       0.0000       0.0000       0.0000      -38.203       0.0000       0.0000       0.0000       0.0000       0.0000       0.0000    
    3     0.0000       0.0000       0.0000       0.0000       0.0000       0.0000       0.0000       0.0000       0.0000       0.0000       0.0000       0.0000       0.0000    
    4     0.0000       0.0000       0.0000       0.0000       0.0000       0.0000       0.0000       0.0000       0.0000       0.0000       0.0000       0.0000       0.0000    
     1 CALLS TO PCG ROUTINE FOR TIME STEP   4 IN STRESS PERIOD    1
     0 TOTAL ITERATIONS
 
 SOLVING FOR HEAD 
MODFLOW ITER.#  NEWTON-RAPHSON ITER.#   MAXIMUM NODE HEAD CHANGE
         1                   1                  0.0000000000
         1                   2                  0.0000000000
         1                   3                  0.0000000000
 INITIAL HNEW IS AN EXACT SOLUTION.


Solver Convergence Information:
                              HClose:  0.0
                              RClose:  3.4694470E-18
                           L2-RClose:  9.1792938E-18
                         Rel-Vol-Err:  0.0
 
MODFLOW ITER.#  NEWTON-RAPHSON ITER.#   MAXIMUM NODE HEAD CHANGE
         1                   1                  0.0000000000
         1                   2                  0.0000000000
         1                   3                  0.0000000000

 NO OUTPUT CONTROL FOR STRESS PERIOD      1   TIME STEP     5
 
 
 CFPM1 CRITERION OF CONVERGENCE:     0.1000000E-05
 CFPM1 MAXIMUM NUMBER OF ITERATIONS:   100
 
 
 CFPM1 RESULTS +++++++++++++++++++++++++++++++++++++++++++++++++++++++
 
 STRESS PERIOD/TIME STEP           1           5
 
NUMBER OF NEWTON RHAPSON ITERATIONS:     3
 
 ------- RESULTS OF FLOW CALCULATION -------
 
NODE#  NODE HEAD[M]   MATRIX HEAD [M] EXCHANGE [M^3/S]      CAD STORAGE    CADS RECHARGE         PFPSFLOW  DIRECT RECHARGE            QWELL             FHLQ           CAUCHY        CAUCHY LQ              QLH             QFIX
    1  10.00    FIX      10.00000         0.000000         0.000000         0.000000         0.000000         0.000000         0.000000         0.000000         0.000000         0.000000         0.000000        -38.20273    
    2  20.10    FIX      10.00000         0.000000         0.000000         0.000000         0.000000         0.000000         0.000000         0.000000         0.000000         0.000000         0.000000         38.20273    
    3  20.10000          10.00000         0.000000         0.000000         0.000000         0.000000         0.000000         0.000000         0.000000         0.000000         0.000000         0.000000         0.000000    
    4  20.10000          10.00000         0.000000         0.000000         0.000000         0.000000         0.000000         0.000000         0.000000         0.000000         0.000000         0.000000         0.000000    
 
TUBE  B  E  FLOW          Q [M^3/SEC]     DIAM.[M]        LEN.[M]        RE         RESIDENCE TIME [S]
   1   1   2   TURB.       -38.20273        1.00000       10.00000 37199750.38085        0.20559
    WARNING! TUBE    2 ACTIVE BUT NO FLOW
   2   2   3   LAMI.         0.00000        1.00000       10.00000        0.00000        0.00000
    WARNING! TUBE    3 ACTIVE BUT NO FLOW
   3   3   4   LAMI.         0.00000        1.00000       10.00000        0.00000        0.00000
 

    BUDGET OF THE PIPE SYSTEM OF TIMESTEP    5 IN STRESS PERIOD    1
------------------------------------------------------------------------

  TOTAL SIMULATION TIME   50.0000000000000      S
 
        CUMULATIVE VALUES (L**3)        RATES THIS TIME STEP (L**3/T)

            IN:                               IN:
     CONSTANT HEAD =   1910.1364          CONSTANT HEAD =   38.202727    
   MATRIX EXCHANGE =   0.0000000        MATRIX EXCHANGE =   0.0000000    
     PIPE RECHARGE =   0.0000000          PIPE RECHARGE =   0.0000000    
       PFP STORAGE =   0.0000000            PFP STORAGE =   0.0000000    

     CUMULATIVE IN =   1910.1364               TOTAL IN =   38.202727    

           OUT:                               OUT:
     CONSTANT HEAD =   1910.1364          CONSTANT HEAD =   38.202727    
   MATRIX EXCHANGE =   0.0000000        MATRIX EXCHANGE =   0.0000000    
     PIPE RECHARGE =   0.0000000          PIPE RECHARGE =   0.0000000    
       PFP STORAGE =   0.0000000            PFP STORAGE =   0.0000000    

    CUMULATIVE OUT =   1910.1364              TOTAL OUT =   38.202727    

          IN - OUT =   0.0000000               IN - OUT =   0.0000000    
     PERCENT ERROR =  0.00                PERCENT ERROR =  0.00


 
 ------------------------NODE WATER BUDGET-----------------------
  STRESS PERIOD           1  TIME STEP           5
 TOTAL SIMULATION TIME   50.0000000000000     
 
 FLOW TO THE NODE IN M^3/S
 
 NODE     FIXED HEAD     RECHARGE        QWELL  MATRIX EXCH      STORAGE      TUBE_IN     TUBE_OUT         CADS     FHLQ(LQ)       CAUCHY   CAUCHY(LQ)          QLH     IN - OUT
    1    -38.203       0.0000       0.0000       0.0000       0.0000       38.203       0.0000       0.0000       0.0000       0.0000       0.0000       0.0000       0.0000    
    2     38.203       0.0000       0.0000       0.0000       0.0000       0.0000      -38.203       0.0000       0.0000       0.0000       0.0000       0.0000       0.0000    
    3     0.0000       0.0000       0.0000       0.0000       0.0000       0.0000       0.0000       0.0000       0.0000       0.0000       0.0000       0.0000       0.0000    
    4     0.0000       0.0000       0.0000       0.0000       0.0000       0.0000       0.0000       0.0000       0.0000       0.0000       0.0000       0.0000       0.0000    
     1 CALLS TO PCG ROUTINE FOR TIME STEP   5 IN STRESS PERIOD    1
     0 TOTAL ITERATIONS

 MAXIMUM HEAD CHANGE FOR EACH ITERATION (1 INDICATES THE FIRST INNER ITERATION):

    HEAD CHANGE    HEAD CHANGE    HEAD CHANGE    HEAD CHANGE    HEAD CHANGE 
   LAYER,ROW,COL  LAYER,ROW,COL  LAYER,ROW,COL  LAYER,ROW,COL  LAYER,ROW,COL
 ---------------------------------------------------------------------------



 MAXIMUM RESIDUAL FOR EACH ITERATION (1 INDICATES THE FIRST INNER ITERATION):

    RESIDUAL       RESIDUAL       RESIDUAL       RESIDUAL       RESIDUAL    
   LAYER,ROW,COL  LAYER,ROW,COL  LAYER,ROW,COL  LAYER,ROW,COL  LAYER,ROW,COL
 ---------------------------------------------------------------------------




 
 SOLVING FOR HEAD 
MODFLOW ITER.#  NEWTON-RAPHSON ITER.#   MAXIMUM NODE HEAD CHANGE
         1                   1                  0.0000000000
         1                   2                  0.0000000000
         1                   3                  0.0000000000
 INITIAL HNEW IS AN EXACT SOLUTION.


Solver Convergence Information:
                              HClose:  0.0
                              RClose:  3.4694470E-18
                           L2-RClose:  9.1792938E-18
                         Rel-Vol-Err:  0.0
 
MODFLOW ITER.#  NEWTON-RAPHSON ITER.#   MAXIMUM NODE HEAD CHANGE
         1                   1                  0.0000000000
         1                   2                  0.0000000000
         1                   3                  0.0000000000

 NO OUTPUT CONTROL FOR STRESS PERIOD      1   TIME STEP     6
 
 
 CFPM1 CRITERION OF CONVERGENCE:     0.1000000E-05
 CFPM1 MAXIMUM NUMBER OF ITERATIONS:   100
 
 
 CFPM1 RESULTS +++++++++++++++++++++++++++++++++++++++++++++++++++++++
 
 STRESS PERIOD/TIME STEP           1           6
 
NUMBER OF NEWTON RHAPSON ITERATIONS:     3
 
 ------- RESULTS OF FLOW CALCULATION -------
 
NODE#  NODE HEAD[M]   MATRIX HEAD [M] EXCHANGE [M^3/S]      CAD STORAGE    CADS RECHARGE         PFPSFLOW  DIRECT RECHARGE            QWELL             FHLQ           CAUCHY        CAUCHY LQ              QLH             QFIX
    1  10.00    FIX      10.00000         0.000000         0.000000         0.000000         0.000000         0.000000         0.000000         0.000000         0.000000         0.000000         0.000000        -38.20273    
    2  20.10    FIX      10.00000         0.000000         0.000000         0.000000         0.000000         0.000000         0.000000         0.000000         0.000000         0.000000         0.000000         38.20273    
    3  20.10000          10.00000         0.000000         0.000000         0.000000         0.000000         0.000000         0.000000         0.000000         0.000000         0.000000         0.000000         0.000000    
    4  20.10000          10.00000         0.000000         0.000000         0.000000         0.000000         0.000000         0.000000         0.000000         0.000000         0.000000         0.000000         0.000000    
 
TUBE  B  E  FLOW          Q [M^3/SEC]     DIAM.[M]        LEN.[M]        RE         RESIDENCE TIME [S]
   1   1   2   TURB.       -38.20273        1.00000       10.00000 37199750.38085        0.20559
    WARNING! TUBE    2 ACTIVE BUT NO FLOW
   2   2   3   LAMI.         0.00000        1.00000       10.00000        0.00000        0.00000
    WARNING! TUBE    3 ACTIVE BUT NO FLOW
   3   3   4   LAMI.         0.00000        1.00000       10.00000        0.00000        0.00000
 

    BUDGET OF THE PIPE SYSTEM OF TIMESTEP    6 IN STRESS PERIOD    1
------------------------------------------------------------------------

  TOTAL SIMULATION TIME   60.0000000000000      S
 
        CUMULATIVE VALUES (L**3)        RATES THIS TIME STEP (L**3/T)

            IN:                               IN:
     CONSTANT HEAD =   2292.1636          CONSTANT HEAD =   38.202727    
   MATRIX EXCHANGE =   0.0000000        MATRIX EXCHANGE =   0.0000000    
     PIPE RECHARGE =   0.0000000          PIPE RECHARGE =   0.0000000    
       PFP STORAGE =   0.0000000            PFP STORAGE =   0.0000000    

     CUMULATIVE IN =   2292.1636               TOTAL IN =   38.202727    

           OUT:                               OUT:
     CONSTANT HEAD =   2292.1636          CONSTANT HEAD =   38.202727    
   MATRIX EXCHANGE =   0.0000000        MATRIX EXCHANGE =   0.0000000    
     PIPE RECHARGE =   0.0000000          PIPE RECHARGE =   0.0000000    
       PFP STORAGE =   0.0000000            PFP STORAGE =   0.0000000    

    CUMULATIVE OUT =   2292.1636              TOTAL OUT =   38.202727    

          IN - OUT =   0.0000000               IN - OUT =   0.0000000    
     PERCENT ERROR =  0.00                PERCENT ERROR =  0.00


 
 ------------------------NODE WATER BUDGET-----------------------
  STRESS PERIOD           1  TIME STEP           6
 TOTAL SIMULATION TIME   60.0000000000000     
 
 FLOW TO THE NODE IN M^3/S
 
 NODE     FIXED HEAD     RECHARGE        QWELL  MATRIX EXCH      STORAGE      TUBE_IN     TUBE_OUT         CADS     FHLQ(LQ)       CAUCHY   CAUCHY(LQ)          QLH     IN - OUT
    1    -38.203       0.0000       0.0000       0.0000       0.0000       38.203       0.0000       0.0000       0.0000       0.0000       0.0000       0.0000       0.0000    
    2     38.203       0.0000       0.0000       0.0000       0.0000       0.0000      -38.203       0.0000       0.0000       0.0000       0.0000       0.0000       0.0000    
    3     0.0000       0.0000       0.0000       0.0000       0.0000       0.0000       0.0000       0.0000       0.0000       0.0000       0.0000       0.0000       0.0000    
    4     0.0000       0.0000       0.0000       0.0000       0.0000       0.0000       0.0000       0.0000       0.0000       0.0000       0.0000       0.0000       0.0000    
     1 CALLS TO PCG ROUTINE FOR TIME STEP   6 IN STRESS PERIOD    1
     0 TOTAL ITERATIONS
 
 SOLVING FOR HEAD 
MODFLOW ITER.#  NEWTON-RAPHSON ITER.#   MAXIMUM NODE HEAD CHANGE
         1                   1                  0.0000000000
         1                   2                  0.0000000000
         1                   3                  0.0000000000
 INITIAL HNEW IS AN EXACT SOLUTION.


Solver Convergence Information:
                              HClose:  0.0
                              RClose:  3.4694470E-18
                           L2-RClose:  9.1792938E-18
                         Rel-Vol-Err:  0.0
 
MODFLOW ITER.#  NEWTON-RAPHSON ITER.#   MAXIMUM NODE HEAD CHANGE
         1                   1                  0.0000000000
         1                   2                  0.0000000000
         1                   3                  0.0000000000

 NO OUTPUT CONTROL FOR STRESS PERIOD      1   TIME STEP     7
 
 
 CFPM1 CRITERION OF CONVERGENCE:     0.1000000E-05
 CFPM1 MAXIMUM NUMBER OF ITERATIONS:   100
 
 
 CFPM1 RESULTS +++++++++++++++++++++++++++++++++++++++++++++++++++++++
 
 STRESS PERIOD/TIME STEP           1           7
 
NUMBER OF NEWTON RHAPSON ITERATIONS:     3
 
 ------- RESULTS OF FLOW CALCULATION -------
 
NODE#  NODE HEAD[M]   MATRIX HEAD [M] EXCHANGE [M^3/S]      CAD STORAGE    CADS RECHARGE         PFPSFLOW  DIRECT RECHARGE            QWELL             FHLQ           CAUCHY        CAUCHY LQ              QLH             QFIX
    1  10.00    FIX      10.00000         0.000000         0.000000         0.000000         0.000000         0.000000         0.000000         0.000000         0.000000         0.000000         0.000000        -38.20273    
    2  20.10    FIX      10.00000         0.000000         0.000000         0.000000         0.000000         0.000000         0.000000         0.000000         0.000000         0.000000         0.000000         38.20273    
    3  20.10000          10.00000         0.000000         0.000000         0.000000         0.000000         0.000000         0.000000         0.000000         0.000000         0.000000         0.000000         0.000000    
    4  20.10000          10.00000         0.000000         0.000000         0.000000         0.000000         0.000000         0.000000         0.000000         0.000000         0.000000         0.000000         0.000000    
 
TUBE  B  E  FLOW          Q [M^3/SEC]     DIAM.[M]        LEN.[M]        RE         RESIDENCE TIME [S]
   1   1   2   TURB.       -38.20273        1.00000       10.00000 37199750.38085        0.20559
    WARNING! TUBE    2 ACTIVE BUT NO FLOW
   2   2   3   LAMI.         0.00000        1.00000       10.00000        0.00000        0.00000
    WARNING! TUBE    3 ACTIVE BUT NO FLOW
   3   3   4   LAMI.         0.00000        1.00000       10.00000        0.00000        0.00000
 

    BUDGET OF THE PIPE SYSTEM OF TIMESTEP    7 IN STRESS PERIOD    1
------------------------------------------------------------------------

  TOTAL SIMULATION TIME   70.0000000000000      S
 
        CUMULATIVE VALUES (L**3)        RATES THIS TIME STEP (L**3/T)

            IN:                               IN:
     CONSTANT HEAD =   2674.1909          CONSTANT HEAD =   38.202727    
   MATRIX EXCHANGE =   0.0000000        MATRIX EXCHANGE =   0.0000000    
     PIPE RECHARGE =   0.0000000          PIPE RECHARGE =   0.0000000    
       PFP STORAGE =   0.0000000            PFP STORAGE =   0.0000000    

     CUMULATIVE IN =   2674.1909               TOTAL IN =   38.202727    

           OUT:                               OUT:
     CONSTANT HEAD =   2674.1909          CONSTANT HEAD =   38.202727    
   MATRIX EXCHANGE =   0.0000000        MATRIX EXCHANGE =   0.0000000    
     PIPE RECHARGE =   0.0000000          PIPE RECHARGE =   0.0000000    
       PFP STORAGE =   0.0000000            PFP STORAGE =   0.0000000    

    CUMULATIVE OUT =   2674.1909              TOTAL OUT =   38.202727    

          IN - OUT =   0.0000000               IN - OUT =   0.0000000    
     PERCENT ERROR =  0.00                PERCENT ERROR =  0.00


 
 ------------------------NODE WATER BUDGET-----------------------
  STRESS PERIOD           1  TIME STEP           7
 TOTAL SIMULATION TIME   70.0000000000000     
 
 FLOW TO THE NODE IN M^3/S
 
 NODE     FIXED HEAD     RECHARGE        QWELL  MATRIX EXCH      STORAGE      TUBE_IN     TUBE_OUT         CADS     FHLQ(LQ)       CAUCHY   CAUCHY(LQ)          QLH     IN - OUT
    1    -38.203       0.0000       0.0000       0.0000       0.0000       38.203       0.0000       0.0000       0.0000       0.0000       0.0000       0.0000       0.0000    
    2     38.203       0.0000       0.0000       0.0000       0.0000       0.0000      -38.203       0.0000       0.0000       0.0000       0.0000       0.0000       0.0000    
    3     0.0000       0.0000       0.0000       0.0000       0.0000       0.0000       0.0000       0.0000       0.0000       0.0000       0.0000       0.0000       0.0000    
    4     0.0000       0.0000       0.0000       0.0000       0.0000       0.0000       0.0000       0.0000       0.0000       0.0000       0.0000       0.0000       0.0000    
     1 CALLS TO PCG ROUTINE FOR TIME STEP   7 IN STRESS PERIOD    1
     0 TOTAL ITERATIONS
 
 SOLVING FOR HEAD 
MODFLOW ITER.#  NEWTON-RAPHSON ITER.#   MAXIMUM NODE HEAD CHANGE
         1                   1                  0.0000000000
         1                   2                  0.0000000000
         1                   3                  0.0000000000
 INITIAL HNEW IS AN EXACT SOLUTION.


Solver Convergence Information:
                              HClose:  0.0
                              RClose:  3.4694470E-18
                           L2-RClose:  9.1792938E-18
                         Rel-Vol-Err:  0.0
 
MODFLOW ITER.#  NEWTON-RAPHSON ITER.#   MAXIMUM NODE HEAD CHANGE
         1                   1                  0.0000000000
         1                   2                  0.0000000000
         1                   3                  0.0000000000

 NO OUTPUT CONTROL FOR STRESS PERIOD      1   TIME STEP     8
 
 
 CFPM1 CRITERION OF CONVERGENCE:     0.1000000E-05
 CFPM1 MAXIMUM NUMBER OF ITERATIONS:   100
 
 
 CFPM1 RESULTS +++++++++++++++++++++++++++++++++++++++++++++++++++++++
 
 STRESS PERIOD/TIME STEP           1           8
 
NUMBER OF NEWTON RHAPSON ITERATIONS:     3
 
 ------- RESULTS OF FLOW CALCULATION -------
 
NODE#  NODE HEAD[M]   MATRIX HEAD [M] EXCHANGE [M^3/S]      CAD STORAGE    CADS RECHARGE         PFPSFLOW  DIRECT RECHARGE            QWELL             FHLQ           CAUCHY        CAUCHY LQ              QLH             QFIX
    1  10.00    FIX      10.00000         0.000000         0.000000         0.000000         0.000000         0.000000         0.000000         0.000000         0.000000         0.000000         0.000000        -38.20273    
    2  20.10    FIX      10.00000         0.000000         0.000000         0.000000         0.000000         0.000000         0.000000         0.000000         0.000000         0.000000         0.000000         38.20273    
    3  20.10000          10.00000         0.000000         0.000000         0.000000         0.000000         0.000000         0.000000         0.000000         0.000000         0.000000         0.000000         0.000000    
    4  20.10000          10.00000         0.000000         0.000000         0.000000         0.000000         0.000000         0.000000         0.000000         0.000000         0.000000         0.000000         0.000000    
 
TUBE  B  E  FLOW          Q [M^3/SEC]     DIAM.[M]        LEN.[M]        RE         RESIDENCE TIME [S]
   1   1   2   TURB.       -38.20273        1.00000       10.00000 37199750.38085        0.20559
    WARNING! TUBE    2 ACTIVE BUT NO FLOW
   2   2   3   LAMI.         0.00000        1.00000       10.00000        0.00000        0.00000
    WARNING! TUBE    3 ACTIVE BUT NO FLOW
   3   3   4   LAMI.         0.00000        1.00000       10.00000        0.00000        0.00000
 

    BUDGET OF THE PIPE SYSTEM OF TIMESTEP    8 IN STRESS PERIOD    1
------------------------------------------------------------------------

  TOTAL SIMULATION TIME   80.0000000000000      S
 
        CUMULATIVE VALUES (L**3)        RATES THIS TIME STEP (L**3/T)

            IN:                               IN:
     CONSTANT HEAD =   3056.2182          CONSTANT HEAD =   38.202727    
   MATRIX EXCHANGE =   0.0000000        MATRIX EXCHANGE =   0.0000000    
     PIPE RECHARGE =   0.0000000          PIPE RECHARGE =   0.0000000    
       PFP STORAGE =   0.0000000            PFP STORAGE =   0.0000000    

     CUMULATIVE IN =   3056.2182               TOTAL IN =   38.202727    

           OUT:                               OUT:
     CONSTANT HEAD =   3056.2182          CONSTANT HEAD =   38.202727    
   MATRIX EXCHANGE =   0.0000000        MATRIX EXCHANGE =   0.0000000    
     PIPE RECHARGE =   0.0000000          PIPE RECHARGE =   0.0000000    
       PFP STORAGE =   0.0000000            PFP STORAGE =   0.0000000    

    CUMULATIVE OUT =   3056.2182              TOTAL OUT =   38.202727    

          IN - OUT =   0.0000000               IN - OUT =   0.0000000    
     PERCENT ERROR =  0.00                PERCENT ERROR =  0.00


 
 ------------------------NODE WATER BUDGET-----------------------
  STRESS PERIOD           1  TIME STEP           8
 TOTAL SIMULATION TIME   80.0000000000000     
 
 FLOW TO THE NODE IN M^3/S
 
 NODE     FIXED HEAD     RECHARGE        QWELL  MATRIX EXCH      STORAGE      TUBE_IN     TUBE_OUT         CADS     FHLQ(LQ)       CAUCHY   CAUCHY(LQ)          QLH     IN - OUT
    1    -38.203       0.0000       0.0000       0.0000       0.0000       38.203       0.0000       0.0000       0.0000       0.0000       0.0000       0.0000       0.0000    
    2     38.203       0.0000       0.0000       0.0000       0.0000       0.0000      -38.203       0.0000       0.0000       0.0000       0.0000       0.0000       0.0000    
    3     0.0000       0.0000       0.0000       0.0000       0.0000       0.0000       0.0000       0.0000       0.0000       0.0000       0.0000       0.0000       0.0000    
    4     0.0000       0.0000       0.0000       0.0000       0.0000       0.0000       0.0000       0.0000       0.0000       0.0000       0.0000       0.0000       0.0000    
     1 CALLS TO PCG ROUTINE FOR TIME STEP   8 IN STRESS PERIOD    1
     0 TOTAL ITERATIONS
 
 SOLVING FOR HEAD 
MODFLOW ITER.#  NEWTON-RAPHSON ITER.#   MAXIMUM NODE HEAD CHANGE
         1                   1                  0.0000000000
         1                   2                  0.0000000000
         1                   3                  0.0000000000
 INITIAL HNEW IS AN EXACT SOLUTION.


Solver Convergence Information:
                              HClose:  0.0
                              RClose:  3.4694470E-18
                           L2-RClose:  9.1792938E-18
                         Rel-Vol-Err:  0.0
 
MODFLOW ITER.#  NEWTON-RAPHSON ITER.#   MAXIMUM NODE HEAD CHANGE
         1                   1                  0.0000000000
         1                   2                  0.0000000000
         1                   3                  0.0000000000

 NO OUTPUT CONTROL FOR STRESS PERIOD      1   TIME STEP     9
 
 
 CFPM1 CRITERION OF CONVERGENCE:     0.1000000E-05
 CFPM1 MAXIMUM NUMBER OF ITERATIONS:   100
 
 
 CFPM1 RESULTS +++++++++++++++++++++++++++++++++++++++++++++++++++++++
 
 STRESS PERIOD/TIME STEP           1           9
 
NUMBER OF NEWTON RHAPSON ITERATIONS:     3
 
 ------- RESULTS OF FLOW CALCULATION -------
 
NODE#  NODE HEAD[M]   MATRIX HEAD [M] EXCHANGE [M^3/S]      CAD STORAGE    CADS RECHARGE         PFPSFLOW  DIRECT RECHARGE            QWELL             FHLQ           CAUCHY        CAUCHY LQ              QLH             QFIX
    1  10.00    FIX      10.00000         0.000000         0.000000         0.000000         0.000000         0.000000         0.000000         0.000000         0.000000         0.000000         0.000000        -38.20273    
    2  20.10    FIX      10.00000         0.000000         0.000000         0.000000         0.000000         0.000000         0.000000         0.000000         0.000000         0.000000         0.000000         38.20273    
    3  20.10000          10.00000         0.000000         0.000000         0.000000         0.000000         0.000000         0.000000         0.000000         0.000000         0.000000         0.000000         0.000000    
    4  20.10000          10.00000         0.000000         0.000000         0.000000         0.000000         0.000000         0.000000         0.000000         0.000000         0.000000         0.000000         0.000000    
 
TUBE  B  E  FLOW          Q [M^3/SEC]     DIAM.[M]        LEN.[M]        RE         RESIDENCE TIME [S]
   1   1   2   TURB.       -38.20273        1.00000       10.00000 37199750.38085        0.20559
    WARNING! TUBE    2 ACTIVE BUT NO FLOW
   2   2   3   LAMI.         0.00000        1.00000       10.00000        0.00000        0.00000
    WARNING! TUBE    3 ACTIVE BUT NO FLOW
   3   3   4   LAMI.         0.00000        1.00000       10.00000        0.00000        0.00000
 

    BUDGET OF THE PIPE SYSTEM OF TIMESTEP    9 IN STRESS PERIOD    1
------------------------------------------------------------------------

  TOTAL SIMULATION TIME   90.0000000000000      S
 
        CUMULATIVE VALUES (L**3)        RATES THIS TIME STEP (L**3/T)

            IN:                               IN:
     CONSTANT HEAD =   3438.2454          CONSTANT HEAD =   38.202727    
   MATRIX EXCHANGE =   0.0000000        MATRIX EXCHANGE =   0.0000000    
     PIPE RECHARGE =   0.0000000          PIPE RECHARGE =   0.0000000    
       PFP STORAGE =   0.0000000            PFP STORAGE =   0.0000000    

     CUMULATIVE IN =   3438.2454               TOTAL IN =   38.202727    

           OUT:                               OUT:
     CONSTANT HEAD =   3438.2454          CONSTANT HEAD =   38.202727    
   MATRIX EXCHANGE =   0.0000000        MATRIX EXCHANGE =   0.0000000    
     PIPE RECHARGE =   0.0000000          PIPE RECHARGE =   0.0000000    
       PFP STORAGE =   0.0000000            PFP STORAGE =   0.0000000    

    CUMULATIVE OUT =   3438.2454              TOTAL OUT =   38.202727    

          IN - OUT =   0.0000000               IN - OUT =   0.0000000    
     PERCENT ERROR =  0.00                PERCENT ERROR =  0.00


 
 ------------------------NODE WATER BUDGET-----------------------
  STRESS PERIOD           1  TIME STEP           9
 TOTAL SIMULATION TIME   90.0000000000000     
 
 FLOW TO THE NODE IN M^3/S
 
 NODE     FIXED HEAD     RECHARGE        QWELL  MATRIX EXCH      STORAGE      TUBE_IN     TUBE_OUT         CADS     FHLQ(LQ)       CAUCHY   CAUCHY(LQ)          QLH     IN - OUT
    1    -38.203       0.0000       0.0000       0.0000       0.0000       38.203       0.0000       0.0000       0.0000       0.0000       0.0000       0.0000       0.0000    
    2     38.203       0.0000       0.0000       0.0000       0.0000       0.0000      -38.203       0.0000       0.0000       0.0000       0.0000       0.0000       0.0000    
    3     0.0000       0.0000       0.0000       0.0000       0.0000       0.0000       0.0000       0.0000       0.0000       0.0000       0.0000       0.0000       0.0000    
    4     0.0000       0.0000       0.0000       0.0000       0.0000       0.0000       0.0000       0.0000       0.0000       0.0000       0.0000       0.0000       0.0000    
     1 CALLS TO PCG ROUTINE FOR TIME STEP   9 IN STRESS PERIOD    1
     0 TOTAL ITERATIONS
 
 SOLVING FOR HEAD 
MODFLOW ITER.#  NEWTON-RAPHSON ITER.#   MAXIMUM NODE HEAD CHANGE
         1                   1                  0.0000000000
         1                   2                  0.0000000000
         1                   3                  0.0000000000
 INITIAL HNEW IS AN EXACT SOLUTION.


Solver Convergence Information:
                              HClose:  0.0
                              RClose:  3.4694470E-18
                           L2-RClose:  9.1792938E-18
                         Rel-Vol-Err:  0.0
 
MODFLOW ITER.#  NEWTON-RAPHSON ITER.#   MAXIMUM NODE HEAD CHANGE
         1                   1                  0.0000000000
         1                   2                  0.0000000000
         1                   3                  0.0000000000

 OUTPUT CONTROL FOR STRESS PERIOD      1   TIME STEP    10
    PRINT HEAD FOR ALL LAYERS
    SAVE HEAD FOR ALL LAYERS
    SAVE BUDGET
 UBDSV2 SAVING "   CONSTANT HEAD" ON UNIT 50 AT TIME STEP 10, STRESS PERIOD 1
 UBDSV1 SAVING "FLOW RIGHT FACE " ON UNIT 50 AT TIME STEP 10, STRESS PERIOD 1
 UBDSV1 SAVING "FLOW FRONT FACE " ON UNIT 50 AT TIME STEP 10, STRESS PERIOD 1
 
 
 CFPM1 CRITERION OF CONVERGENCE:     0.1000000E-05
 CFPM1 MAXIMUM NUMBER OF ITERATIONS:   100
 
 
 CFPM1 RESULTS +++++++++++++++++++++++++++++++++++++++++++++++++++++++
 
 STRESS PERIOD/TIME STEP           1          10
 
NUMBER OF NEWTON RHAPSON ITERATIONS:     3
 
 ------- RESULTS OF FLOW CALCULATION -------
 
NODE#  NODE HEAD[M]   MATRIX HEAD [M] EXCHANGE [M^3/S]      CAD STORAGE    CADS RECHARGE         PFPSFLOW  DIRECT RECHARGE            QWELL             FHLQ           CAUCHY        CAUCHY LQ              QLH             QFIX
    1  10.00    FIX      10.00000         0.000000         0.000000         0.000000         0.000000         0.000000         0.000000         0.000000         0.000000         0.000000         0.000000        -38.20273    
    2  20.10    FIX      10.00000         0.000000         0.000000         0.000000         0.000000         0.000000         0.000000         0.000000         0.000000         0.000000         0.000000         38.20273    
    3  20.10000          10.00000         0.000000         0.000000         0.000000         0.000000         0.000000         0.000000         0.000000         0.000000         0.000000         0.000000         0.000000    
    4  20.10000          10.00000         0.000000         0.000000         0.000000         0.000000         0.000000         0.000000         0.000000         0.000000         0.000000         0.000000         0.000000    
 
TUBE  B  E  FLOW          Q [M^3/SEC]     DIAM.[M]        LEN.[M]        RE         RESIDENCE TIME [S]
   1   1   2   TURB.       -38.20273        1.00000       10.00000 37199750.38085        0.20559
    WARNING! TUBE    2 ACTIVE BUT NO FLOW
   2   2   3   LAMI.         0.00000        1.00000       10.00000        0.00000        0.00000
    WARNING! TUBE    3 ACTIVE BUT NO FLOW
   3   3   4   LAMI.         0.00000        1.00000       10.00000        0.00000        0.00000
 

    BUDGET OF THE PIPE SYSTEM OF TIMESTEP   10 IN STRESS PERIOD    1
------------------------------------------------------------------------

  TOTAL SIMULATION TIME   100.000000000000      S
 
        CUMULATIVE VALUES (L**3)        RATES THIS TIME STEP (L**3/T)

            IN:                               IN:
     CONSTANT HEAD =   3820.2727          CONSTANT HEAD =   38.202727    
   MATRIX EXCHANGE =   0.0000000        MATRIX EXCHANGE =   0.0000000    
     PIPE RECHARGE =   0.0000000          PIPE RECHARGE =   0.0000000    
       PFP STORAGE =   0.0000000            PFP STORAGE =   0.0000000    

     CUMULATIVE IN =   3820.2727               TOTAL IN =   38.202727    

           OUT:                               OUT:
     CONSTANT HEAD =   3820.2727          CONSTANT HEAD =   38.202727    
   MATRIX EXCHANGE =   0.0000000        MATRIX EXCHANGE =   0.0000000    
     PIPE RECHARGE =   0.0000000          PIPE RECHARGE =   0.0000000    
       PFP STORAGE =   0.0000000            PFP STORAGE =   0.0000000    

    CUMULATIVE OUT =   3820.2727              TOTAL OUT =   38.202727    

          IN - OUT =   0.0000000               IN - OUT =   0.0000000    
     PERCENT ERROR =  0.00                PERCENT ERROR =  0.00


 
 ------------------------NODE WATER BUDGET-----------------------
  STRESS PERIOD           1  TIME STEP          10
 TOTAL SIMULATION TIME   100.000000000000     
 
 FLOW TO THE NODE IN M^3/S
 
 NODE     FIXED HEAD     RECHARGE        QWELL  MATRIX EXCH      STORAGE      TUBE_IN     TUBE_OUT         CADS     FHLQ(LQ)       CAUCHY   CAUCHY(LQ)          QLH     IN - OUT
    1    -38.203       0.0000       0.0000       0.0000       0.0000       38.203       0.0000       0.0000       0.0000       0.0000       0.0000       0.0000       0.0000    
    2     38.203       0.0000       0.0000       0.0000       0.0000       0.0000      -38.203       0.0000       0.0000       0.0000       0.0000       0.0000       0.0000    
    3     0.0000       0.0000       0.0000       0.0000       0.0000       0.0000       0.0000       0.0000       0.0000       0.0000       0.0000       0.0000       0.0000    
    4     0.0000       0.0000       0.0000       0.0000       0.0000       0.0000       0.0000       0.0000       0.0000       0.0000       0.0000       0.0000       0.0000    
     1 CALLS TO PCG ROUTINE FOR TIME STEP  10 IN STRESS PERIOD    1
     0 TOTAL ITERATIONS

 MAXIMUM HEAD CHANGE FOR EACH ITERATION (1 INDICATES THE FIRST INNER ITERATION):

    HEAD CHANGE    HEAD CHANGE    HEAD CHANGE    HEAD CHANGE    HEAD CHANGE 
   LAYER,ROW,COL  LAYER,ROW,COL  LAYER,ROW,COL  LAYER,ROW,COL  LAYER,ROW,COL
 ---------------------------------------------------------------------------



 MAXIMUM RESIDUAL FOR EACH ITERATION (1 INDICATES THE FIRST INNER ITERATION):

    RESIDUAL       RESIDUAL       RESIDUAL       RESIDUAL       RESIDUAL    
   LAYER,ROW,COL  LAYER,ROW,COL  LAYER,ROW,COL  LAYER,ROW,COL  LAYER,ROW,COL
 ---------------------------------------------------------------------------




1
              HEAD IN LAYER   1 AT END OF TIME STEP  10 IN STRESS PERIOD    1
  ---------------------------------------------------------------------------

          1         2         3         4         5
 ..................................................
   1    10.       10.       10.       10.       10.    
   2    10.       10.       10.       10.       10.    
   3    10.       10.       10.       10.       10.    
   4    10.       10.       10.       10.       10.    

 HEAD WILL BE SAVED ON UNIT   51 AT END OF TIME STEP    10 IN STRESS PERIOD      1



  -------------------------------------------------------------------------------------
  VOLUMETRIC BUDGET FOR ENTIRE MODEL AT END OF TIME STEP   10 IN STRESS PERIOD      1
  -------------------------------------------------------------------------------------

     CUMULATIVE VOLUMES      L**3       RATES FOR THIS TIME STEP      L**3/T
     ------------------                 ------------------------

           IN:                                      IN:
           ---                                      ---
             STORAGE =           0.0000               STORAGE =           0.0000
       CONSTANT HEAD =           0.0000         CONSTANT HEAD =           0.0000
               PIPES =           0.0000                 PIPES =           0.0000

            TOTAL IN =           0.0000              TOTAL IN =           0.0000

          OUT:                                     OUT:
          ----                                     ----
             STORAGE =           0.0000               STORAGE =           0.0000
       CONSTANT HEAD =           0.0000         CONSTANT HEAD =           0.0000
               PIPES =           0.0000                 PIPES =           0.0000

           TOTAL OUT =           0.0000             TOTAL OUT =           0.0000

            IN - OUT =           0.0000              IN - OUT =           0.0000

 PERCENT DISCREPANCY =           0.00     PERCENT DISCREPANCY =           0.00


          TIME SUMMARY AT END OF TIME STEP    10 IN STRESS PERIOD      1
                    SECONDS     MINUTES      HOURS       DAYS        YEARS
                    -----------------------------------------------------------
   TIME STEP LENGTH  10.000     0.16667     2.77778E-03 1.15741E-04 3.16881E-07
 STRESS PERIOD TIME  100.00      1.6667     2.77778E-02 1.15741E-03 3.16881E-06
         TOTAL TIME  100.00      1.6667     2.77778E-02 1.15741E-03 3.16881E-06
 
1
                            STRESS PERIOD NO.      2, LENGTH =   100.0000    
                            -----------------------------------------------

                              NUMBER OF TIME STEPS =    10

                               MULTIPLIER FOR DELT =     1.000

                            INITIAL TIME STEP SIZE =   10.00000    

READING PCG SOLVER STRESS PERIOD INFORMATION


########################################################################################################################
PCG INPUT FILE STRESS PERIOD CONVERGENCE INFORMATION FAILED READ FOR STRESS PERIOD     2
 REUSING PREVIOUSLY DEFINED CRITERIA FOR REMAINDER OF SIMULATION.
########################################################################################################################
 
 SOLVING FOR HEAD 
MODFLOW ITER.#  NEWTON-RAPHSON ITER.#   MAXIMUM NODE HEAD CHANGE
         1                   1                  0.0000000000
         1                   2                  0.0000000000
         1                   3                  0.0000000000
 INITIAL HNEW IS AN EXACT SOLUTION.


Solver Convergence Information:
                              HClose:  0.0
                              RClose:  0.0
                           L2-RClose:  0.0
                         Rel-Vol-Err:  0.0
 
MODFLOW ITER.#  NEWTON-RAPHSON ITER.#   MAXIMUM NODE HEAD CHANGE
         1                   1                  0.0000000000
         1                   2                  0.0000000000
         1                   3                  0.0000000000

 NO OUTPUT CONTROL FOR STRESS PERIOD      2   TIME STEP     1
 
 
 CFPM1 CRITERION OF CONVERGENCE:     0.1000000E-05
 CFPM1 MAXIMUM NUMBER OF ITERATIONS:   100
 
 
 CFPM1 RESULTS +++++++++++++++++++++++++++++++++++++++++++++++++++++++
 
 STRESS PERIOD/TIME STEP           2           1
 
NUMBER OF NEWTON RHAPSON ITERATIONS:     3
 
 ------- RESULTS OF FLOW CALCULATION -------
 
NODE#  NODE HEAD[M]   MATRIX HEAD [M] EXCHANGE [M^3/S]      CAD STORAGE    CADS RECHARGE         PFPSFLOW  DIRECT RECHARGE            QWELL             FHLQ           CAUCHY        CAUCHY LQ              QLH             QFIX
    1  10.00    FIX      10.00000         0.000000         0.000000         0.000000         0.000000         0.000000         0.000000         0.000000         0.000000         0.000000         0.000000        -38.20273    
    2  20.10    FIX      10.00000         0.000000         0.000000         0.000000         0.000000         0.000000         0.000000         0.000000         0.000000         0.000000         0.000000         38.20273    
    3  20.10000          10.00000         0.000000         0.000000         0.000000         0.000000         0.000000         0.000000         0.000000         0.000000         0.000000         0.000000         0.000000    
    4  20.10000          10.00000         0.000000         0.000000         0.000000         0.000000         0.000000         0.000000         0.000000         0.000000         0.000000         0.000000         0.000000    
 
TUBE  B  E  FLOW          Q [M^3/SEC]     DIAM.[M]        LEN.[M]        RE         RESIDENCE TIME [S]
   1   1   2   TURB.       -38.20273        1.00000       10.00000 37199750.38085        0.20559
    WARNING! TUBE    2 ACTIVE BUT NO FLOW
   2   2   3   LAMI.         0.00000        1.00000       10.00000        0.00000        0.00000
    WARNING! TUBE    3 ACTIVE BUT NO FLOW
   3   3   4   LAMI.         0.00000        1.00000       10.00000        0.00000        0.00000
 

    BUDGET OF THE PIPE SYSTEM OF TIMESTEP    1 IN STRESS PERIOD    2
------------------------------------------------------------------------

  TOTAL SIMULATION TIME   110.000000000000      S
 
        CUMULATIVE VALUES (L**3)        RATES THIS TIME STEP (L**3/T)

            IN:                               IN:
     CONSTANT HEAD =   4202.3000          CONSTANT HEAD =   38.202727    
   MATRIX EXCHANGE =   0.0000000        MATRIX EXCHANGE =   0.0000000    
     PIPE RECHARGE =   0.0000000          PIPE RECHARGE =   0.0000000    
       PFP STORAGE =   0.0000000            PFP STORAGE =   0.0000000    

     CUMULATIVE IN =   4202.3000               TOTAL IN =   38.202727    

           OUT:                               OUT:
     CONSTANT HEAD =   4202.3000          CONSTANT HEAD =   38.202727    
   MATRIX EXCHANGE =   0.0000000        MATRIX EXCHANGE =   0.0000000    
     PIPE RECHARGE =   0.0000000          PIPE RECHARGE =   0.0000000    
       PFP STORAGE =   0.0000000            PFP STORAGE =   0.0000000    

    CUMULATIVE OUT =   4202.3000              TOTAL OUT =   38.202727    

          IN - OUT =   0.0000000               IN - OUT =   0.0000000    
     PERCENT ERROR =  0.00                PERCENT ERROR =  0.00


 
 ------------------------NODE WATER BUDGET-----------------------
  STRESS PERIOD           2  TIME STEP           1
 TOTAL SIMULATION TIME   110.000000000000     
 
 FLOW TO THE NODE IN M^3/S
 
 NODE     FIXED HEAD     RECHARGE        QWELL  MATRIX EXCH      STORAGE      TUBE_IN     TUBE_OUT         CADS     FHLQ(LQ)       CAUCHY   CAUCHY(LQ)          QLH     IN - OUT
    1    -38.203       0.0000       0.0000       0.0000       0.0000       38.203       0.0000       0.0000       0.0000       0.0000       0.0000       0.0000       0.0000    
    2     38.203       0.0000       0.0000       0.0000       0.0000       0.0000      -38.203       0.0000       0.0000       0.0000       0.0000       0.0000       0.0000    
    3     0.0000       0.0000       0.0000       0.0000       0.0000       0.0000       0.0000       0.0000       0.0000       0.0000       0.0000       0.0000       0.0000    
    4     0.0000       0.0000       0.0000       0.0000       0.0000       0.0000       0.0000       0.0000       0.0000       0.0000       0.0000       0.0000       0.0000    


     1 CALLS TO PCG ROUTINE FOR TIME STEP   1 IN STRESS PERIOD    2
     0 TOTAL ITERATIONS
 
 SOLVING FOR HEAD 
MODFLOW ITER.#  NEWTON-RAPHSON ITER.#   MAXIMUM NODE HEAD CHANGE
         1                   1                  0.0000000000
         1                   2                  0.0000000000
         1                   3                  0.0000000000
 INITIAL HNEW IS AN EXACT SOLUTION.


Solver Convergence Information:
                              HClose:  0.0
                              RClose:  0.0
                           L2-RClose:  0.0
                         Rel-Vol-Err:  0.0
 
MODFLOW ITER.#  NEWTON-RAPHSON ITER.#   MAXIMUM NODE HEAD CHANGE
         1                   1                  0.0000000000
         1                   2                  0.0000000000
         1                   3                  0.0000000000

 NO OUTPUT CONTROL FOR STRESS PERIOD      2   TIME STEP     2
 
 
 CFPM1 CRITERION OF CONVERGENCE:     0.1000000E-05
 CFPM1 MAXIMUM NUMBER OF ITERATIONS:   100
 
 
 CFPM1 RESULTS +++++++++++++++++++++++++++++++++++++++++++++++++++++++
 
 STRESS PERIOD/TIME STEP           2           2
 
NUMBER OF NEWTON RHAPSON ITERATIONS:     3
 
 ------- RESULTS OF FLOW CALCULATION -------
 
NODE#  NODE HEAD[M]   MATRIX HEAD [M] EXCHANGE [M^3/S]      CAD STORAGE    CADS RECHARGE         PFPSFLOW  DIRECT RECHARGE            QWELL             FHLQ           CAUCHY        CAUCHY LQ              QLH             QFIX
    1  10.00    FIX      10.00000         0.000000         0.000000         0.000000         0.000000         0.000000         0.000000         0.000000         0.000000         0.000000         0.000000        -38.20273    
    2  20.10    FIX      10.00000         0.000000         0.000000         0.000000         0.000000         0.000000         0.000000         0.000000         0.000000         0.000000         0.000000         38.20273    
    3  20.10000          10.00000         0.000000         0.000000         0.000000         0.000000         0.000000         0.000000         0.000000         0.000000         0.000000         0.000000         0.000000    
    4  20.10000          10.00000         0.000000         0.000000         0.000000         0.000000         0.000000         0.000000         0.000000         0.000000         0.000000         0.000000         0.000000    
 
TUBE  B  E  FLOW          Q [M^3/SEC]     DIAM.[M]        LEN.[M]        RE         RESIDENCE TIME [S]
   1   1   2   TURB.       -38.20273        1.00000       10.00000 37199750.38085        0.20559
    WARNING! TUBE    2 ACTIVE BUT NO FLOW
   2   2   3   LAMI.         0.00000        1.00000       10.00000        0.00000        0.00000
    WARNING! TUBE    3 ACTIVE BUT NO FLOW
   3   3   4   LAMI.         0.00000        1.00000       10.00000        0.00000        0.00000
 

    BUDGET OF THE PIPE SYSTEM OF TIMESTEP    2 IN STRESS PERIOD    2
------------------------------------------------------------------------

  TOTAL SIMULATION TIME   120.000000000000      S
 
        CUMULATIVE VALUES (L**3)        RATES THIS TIME STEP (L**3/T)

            IN:                               IN:
     CONSTANT HEAD =   4584.3272          CONSTANT HEAD =   38.202727    
   MATRIX EXCHANGE =   0.0000000        MATRIX EXCHANGE =   0.0000000    
     PIPE RECHARGE =   0.0000000          PIPE RECHARGE =   0.0000000    
       PFP STORAGE =   0.0000000            PFP STORAGE =   0.0000000    

     CUMULATIVE IN =   4584.3272               TOTAL IN =   38.202727    

           OUT:                               OUT:
     CONSTANT HEAD =   4584.3272          CONSTANT HEAD =   38.202727    
   MATRIX EXCHANGE =   0.0000000        MATRIX EXCHANGE =   0.0000000    
     PIPE RECHARGE =   0.0000000          PIPE RECHARGE =   0.0000000    
       PFP STORAGE =   0.0000000            PFP STORAGE =   0.0000000    

    CUMULATIVE OUT =   4584.3272              TOTAL OUT =   38.202727    

          IN - OUT =   0.0000000               IN - OUT =   0.0000000    
     PERCENT ERROR =  0.00                PERCENT ERROR =  0.00


 
 ------------------------NODE WATER BUDGET-----------------------
  STRESS PERIOD           2  TIME STEP           2
 TOTAL SIMULATION TIME   120.000000000000     
 
 FLOW TO THE NODE IN M^3/S
 
 NODE     FIXED HEAD     RECHARGE        QWELL  MATRIX EXCH      STORAGE      TUBE_IN     TUBE_OUT         CADS     FHLQ(LQ)       CAUCHY   CAUCHY(LQ)          QLH     IN - OUT
    1    -38.203       0.0000       0.0000       0.0000       0.0000       38.203       0.0000       0.0000       0.0000       0.0000       0.0000       0.0000       0.0000    
    2     38.203       0.0000       0.0000       0.0000       0.0000       0.0000      -38.203       0.0000       0.0000       0.0000       0.0000       0.0000       0.0000    
    3     0.0000       0.0000       0.0000       0.0000       0.0000       0.0000       0.0000       0.0000       0.0000       0.0000       0.0000       0.0000       0.0000    
    4     0.0000       0.0000       0.0000       0.0000       0.0000       0.0000       0.0000       0.0000       0.0000       0.0000       0.0000       0.0000       0.0000    
     1 CALLS TO PCG ROUTINE FOR TIME STEP   2 IN STRESS PERIOD    2
     0 TOTAL ITERATIONS
 
 SOLVING FOR HEAD 
MODFLOW ITER.#  NEWTON-RAPHSON ITER.#   MAXIMUM NODE HEAD CHANGE
         1                   1                  0.0000000000
         1                   2                  0.0000000000
         1                   3                  0.0000000000
 INITIAL HNEW IS AN EXACT SOLUTION.


Solver Convergence Information:
                              HClose:  0.0
                              RClose:  0.0
                           L2-RClose:  0.0
                         Rel-Vol-Err:  0.0
 
MODFLOW ITER.#  NEWTON-RAPHSON ITER.#   MAXIMUM NODE HEAD CHANGE
         1                   1                  0.0000000000
         1                   2                  0.0000000000
         1                   3                  0.0000000000

 NO OUTPUT CONTROL FOR STRESS PERIOD      2   TIME STEP     3
 
 
 CFPM1 CRITERION OF CONVERGENCE:     0.1000000E-05
 CFPM1 MAXIMUM NUMBER OF ITERATIONS:   100
 
 
 CFPM1 RESULTS +++++++++++++++++++++++++++++++++++++++++++++++++++++++
 
 STRESS PERIOD/TIME STEP           2           3
 
NUMBER OF NEWTON RHAPSON ITERATIONS:     3
 
 ------- RESULTS OF FLOW CALCULATION -------
 
NODE#  NODE HEAD[M]   MATRIX HEAD [M] EXCHANGE [M^3/S]      CAD STORAGE    CADS RECHARGE         PFPSFLOW  DIRECT RECHARGE            QWELL             FHLQ           CAUCHY        CAUCHY LQ              QLH             QFIX
    1  10.00    FIX      10.00000         0.000000         0.000000         0.000000         0.000000         0.000000         0.000000         0.000000         0.000000         0.000000         0.000000        -38.20273    
    2  20.10    FIX      10.00000         0.000000         0.000000         0.000000         0.000000         0.000000         0.000000         0.000000         0.000000         0.000000         0.000000         38.20273    
    3  20.10000          10.00000         0.000000         0.000000         0.000000         0.000000         0.000000         0.000000         0.000000         0.000000         0.000000         0.000000         0.000000    
    4  20.10000          10.00000         0.000000         0.000000         0.000000         0.000000         0.000000         0.000000         0.000000         0.000000         0.000000         0.000000         0.000000    
 
TUBE  B  E  FLOW          Q [M^3/SEC]     DIAM.[M]        LEN.[M]        RE         RESIDENCE TIME [S]
   1   1   2   TURB.       -38.20273        1.00000       10.00000 37199750.38085        0.20559
    WARNING! TUBE    2 ACTIVE BUT NO FLOW
   2   2   3   LAMI.         0.00000        1.00000       10.00000        0.00000        0.00000
    WARNING! TUBE    3 ACTIVE BUT NO FLOW
   3   3   4   LAMI.         0.00000        1.00000       10.00000        0.00000        0.00000
 

    BUDGET OF THE PIPE SYSTEM OF TIMESTEP    3 IN STRESS PERIOD    2
------------------------------------------------------------------------

  TOTAL SIMULATION TIME   130.000000000000      S
 
        CUMULATIVE VALUES (L**3)        RATES THIS TIME STEP (L**3/T)

            IN:                               IN:
     CONSTANT HEAD =   4966.3545          CONSTANT HEAD =   38.202727    
   MATRIX EXCHANGE =   0.0000000        MATRIX EXCHANGE =   0.0000000    
     PIPE RECHARGE =   0.0000000          PIPE RECHARGE =   0.0000000    
       PFP STORAGE =   0.0000000            PFP STORAGE =   0.0000000    

     CUMULATIVE IN =   4966.3545               TOTAL IN =   38.202727    

           OUT:                               OUT:
     CONSTANT HEAD =   4966.3545          CONSTANT HEAD =   38.202727    
   MATRIX EXCHANGE =   0.0000000        MATRIX EXCHANGE =   0.0000000    
     PIPE RECHARGE =   0.0000000          PIPE RECHARGE =   0.0000000    
       PFP STORAGE =   0.0000000            PFP STORAGE =   0.0000000    

    CUMULATIVE OUT =   4966.3545              TOTAL OUT =   38.202727    

          IN - OUT =   0.0000000               IN - OUT =   0.0000000    
     PERCENT ERROR =  0.00                PERCENT ERROR =  0.00


 
 ------------------------NODE WATER BUDGET-----------------------
  STRESS PERIOD           2  TIME STEP           3
 TOTAL SIMULATION TIME   130.000000000000     
 
 FLOW TO THE NODE IN M^3/S
 
 NODE     FIXED HEAD     RECHARGE        QWELL  MATRIX EXCH      STORAGE      TUBE_IN     TUBE_OUT         CADS     FHLQ(LQ)       CAUCHY   CAUCHY(LQ)          QLH     IN - OUT
    1    -38.203       0.0000       0.0000       0.0000       0.0000       38.203       0.0000       0.0000       0.0000       0.0000       0.0000       0.0000       0.0000    
    2     38.203       0.0000       0.0000       0.0000       0.0000       0.0000      -38.203       0.0000       0.0000       0.0000       0.0000       0.0000       0.0000    
    3     0.0000       0.0000       0.0000       0.0000       0.0000       0.0000       0.0000       0.0000       0.0000       0.0000       0.0000       0.0000       0.0000    
    4     0.0000       0.0000       0.0000       0.0000       0.0000       0.0000       0.0000       0.0000       0.0000       0.0000       0.0000       0.0000       0.0000    
     1 CALLS TO PCG ROUTINE FOR TIME STEP   3 IN STRESS PERIOD    2
     0 TOTAL ITERATIONS
 
 SOLVING FOR HEAD 
MODFLOW ITER.#  NEWTON-RAPHSON ITER.#   MAXIMUM NODE HEAD CHANGE
         1                   1                  0.0000000000
         1                   2                  0.0000000000
         1                   3                  0.0000000000
 INITIAL HNEW IS AN EXACT SOLUTION.


Solver Convergence Information:
                              HClose:  0.0
                              RClose:  0.0
                           L2-RClose:  0.0
                         Rel-Vol-Err:  0.0
 
MODFLOW ITER.#  NEWTON-RAPHSON ITER.#   MAXIMUM NODE HEAD CHANGE
         1                   1                  0.0000000000
         1                   2                  0.0000000000
         1                   3                  0.0000000000

 NO OUTPUT CONTROL FOR STRESS PERIOD      2   TIME STEP     4
 
 
 CFPM1 CRITERION OF CONVERGENCE:     0.1000000E-05
 CFPM1 MAXIMUM NUMBER OF ITERATIONS:   100
 
 
 CFPM1 RESULTS +++++++++++++++++++++++++++++++++++++++++++++++++++++++
 
 STRESS PERIOD/TIME STEP           2           4
 
NUMBER OF NEWTON RHAPSON ITERATIONS:     3
 
 ------- RESULTS OF FLOW CALCULATION -------
 
NODE#  NODE HEAD[M]   MATRIX HEAD [M] EXCHANGE [M^3/S]      CAD STORAGE    CADS RECHARGE         PFPSFLOW  DIRECT RECHARGE            QWELL             FHLQ           CAUCHY        CAUCHY LQ              QLH             QFIX
    1  10.00    FIX      10.00000         0.000000         0.000000         0.000000         0.000000         0.000000         0.000000         0.000000         0.000000         0.000000         0.000000        -38.20273    
    2  20.10    FIX      10.00000         0.000000         0.000000         0.000000         0.000000         0.000000         0.000000         0.000000         0.000000         0.000000         0.000000         38.20273    
    3  20.10000          10.00000         0.000000         0.000000         0.000000         0.000000         0.000000         0.000000         0.000000         0.000000         0.000000         0.000000         0.000000    
    4  20.10000          10.00000         0.000000         0.000000         0.000000         0.000000         0.000000         0.000000         0.000000         0.000000         0.000000         0.000000         0.000000    
 
TUBE  B  E  FLOW          Q [M^3/SEC]     DIAM.[M]        LEN.[M]        RE         RESIDENCE TIME [S]
   1   1   2   TURB.       -38.20273        1.00000       10.00000 37199750.38085        0.20559
    WARNING! TUBE    2 ACTIVE BUT NO FLOW
   2   2   3   LAMI.         0.00000        1.00000       10.00000        0.00000        0.00000
    WARNING! TUBE    3 ACTIVE BUT NO FLOW
   3   3   4   LAMI.         0.00000        1.00000       10.00000        0.00000        0.00000
 

    BUDGET OF THE PIPE SYSTEM OF TIMESTEP    4 IN STRESS PERIOD    2
------------------------------------------------------------------------

  TOTAL SIMULATION TIME   140.000000000000      S
 
        CUMULATIVE VALUES (L**3)        RATES THIS TIME STEP (L**3/T)

            IN:                               IN:
     CONSTANT HEAD =   5348.3818          CONSTANT HEAD =   38.202727    
   MATRIX EXCHANGE =   0.0000000        MATRIX EXCHANGE =   0.0000000    
     PIPE RECHARGE =   0.0000000          PIPE RECHARGE =   0.0000000    
       PFP STORAGE =   0.0000000            PFP STORAGE =   0.0000000    

     CUMULATIVE IN =   5348.3818               TOTAL IN =   38.202727    

           OUT:                               OUT:
     CONSTANT HEAD =   5348.3818          CONSTANT HEAD =   38.202727    
   MATRIX EXCHANGE =   0.0000000        MATRIX EXCHANGE =   0.0000000    
     PIPE RECHARGE =   0.0000000          PIPE RECHARGE =   0.0000000    
       PFP STORAGE =   0.0000000            PFP STORAGE =   0.0000000    

    CUMULATIVE OUT =   5348.3818              TOTAL OUT =   38.202727    

          IN - OUT =   0.0000000               IN - OUT =   0.0000000    
     PERCENT ERROR =  0.00                PERCENT ERROR =  0.00


 
 ------------------------NODE WATER BUDGET-----------------------
  STRESS PERIOD           2  TIME STEP           4
 TOTAL SIMULATION TIME   140.000000000000     
 
 FLOW TO THE NODE IN M^3/S
 
 NODE     FIXED HEAD     RECHARGE        QWELL  MATRIX EXCH      STORAGE      TUBE_IN     TUBE_OUT         CADS     FHLQ(LQ)       CAUCHY   CAUCHY(LQ)          QLH     IN - OUT
    1    -38.203       0.0000       0.0000       0.0000       0.0000       38.203       0.0000       0.0000       0.0000       0.0000       0.0000       0.0000       0.0000    
    2     38.203       0.0000       0.0000       0.0000       0.0000       0.0000      -38.203       0.0000       0.0000       0.0000       0.0000       0.0000       0.0000    
    3     0.0000       0.0000       0.0000       0.0000       0.0000       0.0000       0.0000       0.0000       0.0000       0.0000       0.0000       0.0000       0.0000    
    4     0.0000       0.0000       0.0000       0.0000       0.0000       0.0000       0.0000       0.0000       0.0000       0.0000       0.0000       0.0000       0.0000    
     1 CALLS TO PCG ROUTINE FOR TIME STEP   4 IN STRESS PERIOD    2
     0 TOTAL ITERATIONS
 
 SOLVING FOR HEAD 
MODFLOW ITER.#  NEWTON-RAPHSON ITER.#   MAXIMUM NODE HEAD CHANGE
         1                   1                  0.0000000000
         1                   2                  0.0000000000
         1                   3                  0.0000000000
 INITIAL HNEW IS AN EXACT SOLUTION.


Solver Convergence Information:
                              HClose:  0.0
                              RClose:  0.0
                           L2-RClose:  0.0
                         Rel-Vol-Err:  0.0
 
MODFLOW ITER.#  NEWTON-RAPHSON ITER.#   MAXIMUM NODE HEAD CHANGE
         1                   1                  0.0000000000
         1                   2                  0.0000000000
         1                   3                  0.0000000000

 NO OUTPUT CONTROL FOR STRESS PERIOD      2   TIME STEP     5
 
 
 CFPM1 CRITERION OF CONVERGENCE:     0.1000000E-05
 CFPM1 MAXIMUM NUMBER OF ITERATIONS:   100
 
 
 CFPM1 RESULTS +++++++++++++++++++++++++++++++++++++++++++++++++++++++
 
 STRESS PERIOD/TIME STEP           2           5
 
NUMBER OF NEWTON RHAPSON ITERATIONS:     3
 
 ------- RESULTS OF FLOW CALCULATION -------
 
NODE#  NODE HEAD[M]   MATRIX HEAD [M] EXCHANGE [M^3/S]      CAD STORAGE    CADS RECHARGE         PFPSFLOW  DIRECT RECHARGE            QWELL             FHLQ           CAUCHY        CAUCHY LQ              QLH             QFIX
    1  10.00    FIX      10.00000         0.000000         0.000000         0.000000         0.000000         0.000000         0.000000         0.000000         0.000000         0.000000         0.000000        -38.20273    
    2  20.10    FIX      10.00000         0.000000         0.000000         0.000000         0.000000         0.000000         0.000000         0.000000         0.000000         0.000000         0.000000         38.20273    
    3  20.10000          10.00000         0.000000         0.000000         0.000000         0.000000         0.000000         0.000000         0.000000         0.000000         0.000000         0.000000         0.000000    
    4  20.10000          10.00000         0.000000         0.000000         0.000000         0.000000         0.000000         0.000000         0.000000         0.000000         0.000000         0.000000         0.000000    
 
TUBE  B  E  FLOW          Q [M^3/SEC]     DIAM.[M]        LEN.[M]        RE         RESIDENCE TIME [S]
   1   1   2   TURB.       -38.20273        1.00000       10.00000 37199750.38085        0.20559
    WARNING! TUBE    2 ACTIVE BUT NO FLOW
   2   2   3   LAMI.         0.00000        1.00000       10.00000        0.00000        0.00000
    WARNING! TUBE    3 ACTIVE BUT NO FLOW
   3   3   4   LAMI.         0.00000        1.00000       10.00000        0.00000        0.00000
 

    BUDGET OF THE PIPE SYSTEM OF TIMESTEP    5 IN STRESS PERIOD    2
------------------------------------------------------------------------

  TOTAL SIMULATION TIME   150.000000000000      S
 
        CUMULATIVE VALUES (L**3)        RATES THIS TIME STEP (L**3/T)

            IN:                               IN:
     CONSTANT HEAD =   5730.4091          CONSTANT HEAD =   38.202727    
   MATRIX EXCHANGE =   0.0000000        MATRIX EXCHANGE =   0.0000000    
     PIPE RECHARGE =   0.0000000          PIPE RECHARGE =   0.0000000    
       PFP STORAGE =   0.0000000            PFP STORAGE =   0.0000000    

     CUMULATIVE IN =   5730.4091               TOTAL IN =   38.202727    

           OUT:                               OUT:
     CONSTANT HEAD =   5730.4091          CONSTANT HEAD =   38.202727    
   MATRIX EXCHANGE =   0.0000000        MATRIX EXCHANGE =   0.0000000    
     PIPE RECHARGE =   0.0000000          PIPE RECHARGE =   0.0000000    
       PFP STORAGE =   0.0000000            PFP STORAGE =   0.0000000    

    CUMULATIVE OUT =   5730.4091              TOTAL OUT =   38.202727    

          IN - OUT =   0.0000000               IN - OUT =   0.0000000    
     PERCENT ERROR =  0.00                PERCENT ERROR =  0.00


 
 ------------------------NODE WATER BUDGET-----------------------
  STRESS PERIOD           2  TIME STEP           5
 TOTAL SIMULATION TIME   150.000000000000     
 
 FLOW TO THE NODE IN M^3/S
 
 NODE     FIXED HEAD     RECHARGE        QWELL  MATRIX EXCH      STORAGE      TUBE_IN     TUBE_OUT         CADS     FHLQ(LQ)       CAUCHY   CAUCHY(LQ)          QLH     IN - OUT
    1    -38.203       0.0000       0.0000       0.0000       0.0000       38.203       0.0000       0.0000       0.0000       0.0000       0.0000       0.0000       0.0000    
    2     38.203       0.0000       0.0000       0.0000       0.0000       0.0000      -38.203       0.0000       0.0000       0.0000       0.0000       0.0000       0.0000    
    3     0.0000       0.0000       0.0000       0.0000       0.0000       0.0000       0.0000       0.0000       0.0000       0.0000       0.0000       0.0000       0.0000    
    4     0.0000       0.0000       0.0000       0.0000       0.0000       0.0000       0.0000       0.0000       0.0000       0.0000       0.0000       0.0000       0.0000    
     1 CALLS TO PCG ROUTINE FOR TIME STEP   5 IN STRESS PERIOD    2
     0 TOTAL ITERATIONS

 MAXIMUM HEAD CHANGE FOR EACH ITERATION (1 INDICATES THE FIRST INNER ITERATION):

    HEAD CHANGE    HEAD CHANGE    HEAD CHANGE    HEAD CHANGE    HEAD CHANGE 
   LAYER,ROW,COL  LAYER,ROW,COL  LAYER,ROW,COL  LAYER,ROW,COL  LAYER,ROW,COL
 ---------------------------------------------------------------------------



 MAXIMUM RESIDUAL FOR EACH ITERATION (1 INDICATES THE FIRST INNER ITERATION):

    RESIDUAL       RESIDUAL       RESIDUAL       RESIDUAL       RESIDUAL    
   LAYER,ROW,COL  LAYER,ROW,COL  LAYER,ROW,COL  LAYER,ROW,COL  LAYER,ROW,COL
 ---------------------------------------------------------------------------




 
 SOLVING FOR HEAD 
MODFLOW ITER.#  NEWTON-RAPHSON ITER.#   MAXIMUM NODE HEAD CHANGE
         1                   1                  0.0000000000
         1                   2                  0.0000000000
         1                   3                  0.0000000000
 INITIAL HNEW IS AN EXACT SOLUTION.


Solver Convergence Information:
                              HClose:  0.0
                              RClose:  0.0
                           L2-RClose:  0.0
                         Rel-Vol-Err:  0.0
 
MODFLOW ITER.#  NEWTON-RAPHSON ITER.#   MAXIMUM NODE HEAD CHANGE
         1                   1                  0.0000000000
         1                   2                  0.0000000000
         1                   3                  0.0000000000

 NO OUTPUT CONTROL FOR STRESS PERIOD      2   TIME STEP     6
 
 
 CFPM1 CRITERION OF CONVERGENCE:     0.1000000E-05
 CFPM1 MAXIMUM NUMBER OF ITERATIONS:   100
 
 
 CFPM1 RESULTS +++++++++++++++++++++++++++++++++++++++++++++++++++++++
 
 STRESS PERIOD/TIME STEP           2           6
 
NUMBER OF NEWTON RHAPSON ITERATIONS:     3
 
 ------- RESULTS OF FLOW CALCULATION -------
 
NODE#  NODE HEAD[M]   MATRIX HEAD [M] EXCHANGE [M^3/S]      CAD STORAGE    CADS RECHARGE         PFPSFLOW  DIRECT RECHARGE            QWELL             FHLQ           CAUCHY        CAUCHY LQ              QLH             QFIX
    1  10.00    FIX      10.00000         0.000000         0.000000         0.000000         0.000000         0.000000         0.000000         0.000000         0.000000         0.000000         0.000000        -38.20273    
    2  20.10    FIX      10.00000         0.000000         0.000000         0.000000         0.000000         0.000000         0.000000         0.000000         0.000000         0.000000         0.000000         38.20273    
    3  20.10000          10.00000         0.000000         0.000000         0.000000         0.000000         0.000000         0.000000         0.000000         0.000000         0.000000         0.000000         0.000000    
    4  20.10000          10.00000         0.000000         0.000000         0.000000         0.000000         0.000000         0.000000         0.000000         0.000000         0.000000         0.000000         0.000000    
 
TUBE  B  E  FLOW          Q [M^3/SEC]     DIAM.[M]        LEN.[M]        RE         RESIDENCE TIME [S]
   1   1   2   TURB.       -38.20273        1.00000       10.00000 37199750.38085        0.20559
    WARNING! TUBE    2 ACTIVE BUT NO FLOW
   2   2   3   LAMI.         0.00000        1.00000       10.00000        0.00000        0.00000
    WARNING! TUBE    3 ACTIVE BUT NO FLOW
   3   3   4   LAMI.         0.00000        1.00000       10.00000        0.00000        0.00000
 

    BUDGET OF THE PIPE SYSTEM OF TIMESTEP    6 IN STRESS PERIOD    2
------------------------------------------------------------------------

  TOTAL SIMULATION TIME   160.000000000000      S
 
        CUMULATIVE VALUES (L**3)        RATES THIS TIME STEP (L**3/T)

            IN:                               IN:
     CONSTANT HEAD =   6112.4363          CONSTANT HEAD =   38.202727    
   MATRIX EXCHANGE =   0.0000000        MATRIX EXCHANGE =   0.0000000    
     PIPE RECHARGE =   0.0000000          PIPE RECHARGE =   0.0000000    
       PFP STORAGE =   0.0000000            PFP STORAGE =   0.0000000    

     CUMULATIVE IN =   6112.4363               TOTAL IN =   38.202727    

           OUT:                               OUT:
     CONSTANT HEAD =   6112.4363          CONSTANT HEAD =   38.202727    
   MATRIX EXCHANGE =   0.0000000        MATRIX EXCHANGE =   0.0000000    
     PIPE RECHARGE =   0.0000000          PIPE RECHARGE =   0.0000000    
       PFP STORAGE =   0.0000000            PFP STORAGE =   0.0000000    

    CUMULATIVE OUT =   6112.4363              TOTAL OUT =   38.202727    

          IN - OUT =   0.0000000               IN - OUT =   0.0000000    
     PERCENT ERROR =  0.00                PERCENT ERROR =  0.00


 
 ------------------------NODE WATER BUDGET-----------------------
  STRESS PERIOD           2  TIME STEP           6
 TOTAL SIMULATION TIME   160.000000000000     
 
 FLOW TO THE NODE IN M^3/S
 
 NODE     FIXED HEAD     RECHARGE        QWELL  MATRIX EXCH      STORAGE      TUBE_IN     TUBE_OUT         CADS     FHLQ(LQ)       CAUCHY   CAUCHY(LQ)          QLH     IN - OUT
    1    -38.203       0.0000       0.0000       0.0000       0.0000       38.203       0.0000       0.0000       0.0000       0.0000       0.0000       0.0000       0.0000    
    2     38.203       0.0000       0.0000       0.0000       0.0000       0.0000      -38.203       0.0000       0.0000       0.0000       0.0000       0.0000       0.0000    
    3     0.0000       0.0000       0.0000       0.0000       0.0000       0.0000       0.0000       0.0000       0.0000       0.0000       0.0000       0.0000       0.0000    
    4     0.0000       0.0000       0.0000       0.0000       0.0000       0.0000       0.0000       0.0000       0.0000       0.0000       0.0000       0.0000       0.0000    
     1 CALLS TO PCG ROUTINE FOR TIME STEP   6 IN STRESS PERIOD    2
     0 TOTAL ITERATIONS
 
 SOLVING FOR HEAD 
MODFLOW ITER.#  NEWTON-RAPHSON ITER.#   MAXIMUM NODE HEAD CHANGE
         1                   1                  0.0000000000
         1                   2                  0.0000000000
         1                   3                  0.0000000000
 INITIAL HNEW IS AN EXACT SOLUTION.


Solver Convergence Information:
                              HClose:  0.0
                              RClose:  0.0
                           L2-RClose:  0.0
                         Rel-Vol-Err:  0.0
 
MODFLOW ITER.#  NEWTON-RAPHSON ITER.#   MAXIMUM NODE HEAD CHANGE
         1                   1                  0.0000000000
         1                   2                  0.0000000000
         1                   3                  0.0000000000

 NO OUTPUT CONTROL FOR STRESS PERIOD      2   TIME STEP     7
 
 
 CFPM1 CRITERION OF CONVERGENCE:     0.1000000E-05
 CFPM1 MAXIMUM NUMBER OF ITERATIONS:   100
 
 
 CFPM1 RESULTS +++++++++++++++++++++++++++++++++++++++++++++++++++++++
 
 STRESS PERIOD/TIME STEP           2           7
 
NUMBER OF NEWTON RHAPSON ITERATIONS:     3
 
 ------- RESULTS OF FLOW CALCULATION -------
 
NODE#  NODE HEAD[M]   MATRIX HEAD [M] EXCHANGE [M^3/S]      CAD STORAGE    CADS RECHARGE         PFPSFLOW  DIRECT RECHARGE            QWELL             FHLQ           CAUCHY        CAUCHY LQ              QLH             QFIX
    1  10.00    FIX      10.00000         0.000000         0.000000         0.000000         0.000000         0.000000         0.000000         0.000000         0.000000         0.000000         0.000000        -38.20273    
    2  20.10    FIX      10.00000         0.000000         0.000000         0.000000         0.000000         0.000000         0.000000         0.000000         0.000000         0.000000         0.000000         38.20273    
    3  20.10000          10.00000         0.000000         0.000000         0.000000         0.000000         0.000000         0.000000         0.000000         0.000000         0.000000         0.000000         0.000000    
    4  20.10000          10.00000         0.000000         0.000000         0.000000         0.000000         0.000000         0.000000         0.000000         0.000000         0.000000         0.000000         0.000000    
 
TUBE  B  E  FLOW          Q [M^3/SEC]     DIAM.[M]        LEN.[M]        RE         RESIDENCE TIME [S]
   1   1   2   TURB.       -38.20273        1.00000       10.00000 37199750.38085        0.20559
    WARNING! TUBE    2 ACTIVE BUT NO FLOW
   2   2   3   LAMI.         0.00000        1.00000       10.00000        0.00000        0.00000
    WARNING! TUBE    3 ACTIVE BUT NO FLOW
   3   3   4   LAMI.         0.00000        1.00000       10.00000        0.00000        0.00000
 

    BUDGET OF THE PIPE SYSTEM OF TIMESTEP    7 IN STRESS PERIOD    2
------------------------------------------------------------------------

  TOTAL SIMULATION TIME   170.000000000000      S
 
        CUMULATIVE VALUES (L**3)        RATES THIS TIME STEP (L**3/T)

            IN:                               IN:
     CONSTANT HEAD =   6494.4636          CONSTANT HEAD =   38.202727    
   MATRIX EXCHANGE =   0.0000000        MATRIX EXCHANGE =   0.0000000    
     PIPE RECHARGE =   0.0000000          PIPE RECHARGE =   0.0000000    
       PFP STORAGE =   0.0000000            PFP STORAGE =   0.0000000    

     CUMULATIVE IN =   6494.4636               TOTAL IN =   38.202727    

           OUT:                               OUT:
     CONSTANT HEAD =   6494.4636          CONSTANT HEAD =   38.202727    
   MATRIX EXCHANGE =   0.0000000        MATRIX EXCHANGE =   0.0000000    
     PIPE RECHARGE =   0.0000000          PIPE RECHARGE =   0.0000000    
       PFP STORAGE =   0.0000000            PFP STORAGE =   0.0000000    

    CUMULATIVE OUT =   6494.4636              TOTAL OUT =   38.202727    

          IN - OUT =   0.0000000               IN - OUT =   0.0000000    
     PERCENT ERROR =  0.00                PERCENT ERROR =  0.00


 
 ------------------------NODE WATER BUDGET-----------------------
  STRESS PERIOD           2  TIME STEP           7
 TOTAL SIMULATION TIME   170.000000000000     
 
 FLOW TO THE NODE IN M^3/S
 
 NODE     FIXED HEAD     RECHARGE        QWELL  MATRIX EXCH      STORAGE      TUBE_IN     TUBE_OUT         CADS     FHLQ(LQ)       CAUCHY   CAUCHY(LQ)          QLH     IN - OUT
    1    -38.203       0.0000       0.0000       0.0000       0.0000       38.203       0.0000       0.0000       0.0000       0.0000       0.0000       0.0000       0.0000    
    2     38.203       0.0000       0.0000       0.0000       0.0000       0.0000      -38.203       0.0000       0.0000       0.0000       0.0000       0.0000       0.0000    
    3     0.0000       0.0000       0.0000       0.0000       0.0000       0.0000       0.0000       0.0000       0.0000       0.0000       0.0000       0.0000       0.0000    
    4     0.0000       0.0000       0.0000       0.0000       0.0000       0.0000       0.0000       0.0000       0.0000       0.0000       0.0000       0.0000       0.0000    
     1 CALLS TO PCG ROUTINE FOR TIME STEP   7 IN STRESS PERIOD    2
     0 TOTAL ITERATIONS
 
 SOLVING FOR HEAD 
MODFLOW ITER.#  NEWTON-RAPHSON ITER.#   MAXIMUM NODE HEAD CHANGE
         1                   1                  0.0000000000
         1                   2                  0.0000000000
         1                   3                  0.0000000000
 INITIAL HNEW IS AN EXACT SOLUTION.


Solver Convergence Information:
                              HClose:  0.0
                              RClose:  0.0
                           L2-RClose:  0.0
                         Rel-Vol-Err:  0.0
 
MODFLOW ITER.#  NEWTON-RAPHSON ITER.#   MAXIMUM NODE HEAD CHANGE
         1                   1                  0.0000000000
         1                   2                  0.0000000000
         1                   3                  0.0000000000

 NO OUTPUT CONTROL FOR STRESS PERIOD      2   TIME STEP     8
 
 
 CFPM1 CRITERION OF CONVERGENCE:     0.1000000E-05
 CFPM1 MAXIMUM NUMBER OF ITERATIONS:   100
 
 
 CFPM1 RESULTS +++++++++++++++++++++++++++++++++++++++++++++++++++++++
 
 STRESS PERIOD/TIME STEP           2           8
 
NUMBER OF NEWTON RHAPSON ITERATIONS:     3
 
 ------- RESULTS OF FLOW CALCULATION -------
 
NODE#  NODE HEAD[M]   MATRIX HEAD [M] EXCHANGE [M^3/S]      CAD STORAGE    CADS RECHARGE         PFPSFLOW  DIRECT RECHARGE            QWELL             FHLQ           CAUCHY        CAUCHY LQ              QLH             QFIX
    1  10.00    FIX      10.00000         0.000000         0.000000         0.000000         0.000000         0.000000         0.000000         0.000000         0.000000         0.000000         0.000000        -38.20273    
    2  20.10    FIX      10.00000         0.000000         0.000000         0.000000         0.000000         0.000000         0.000000         0.000000         0.000000         0.000000         0.000000         38.20273    
    3  20.10000          10.00000         0.000000         0.000000         0.000000         0.000000         0.000000         0.000000         0.000000         0.000000         0.000000         0.000000         0.000000    
    4  20.10000          10.00000         0.000000         0.000000         0.000000         0.000000         0.000000         0.000000         0.000000         0.000000         0.000000         0.000000         0.000000    
 
TUBE  B  E  FLOW          Q [M^3/SEC]     DIAM.[M]        LEN.[M]        RE         RESIDENCE TIME [S]
   1   1   2   TURB.       -38.20273        1.00000       10.00000 37199750.38085        0.20559
    WARNING! TUBE    2 ACTIVE BUT NO FLOW
   2   2   3   LAMI.         0.00000        1.00000       10.00000        0.00000        0.00000
    WARNING! TUBE    3 ACTIVE BUT NO FLOW
   3   3   4   LAMI.         0.00000        1.00000       10.00000        0.00000        0.00000
 

    BUDGET OF THE PIPE SYSTEM OF TIMESTEP    8 IN STRESS PERIOD    2
------------------------------------------------------------------------

  TOTAL SIMULATION TIME   180.000000000000      S
 
        CUMULATIVE VALUES (L**3)        RATES THIS TIME STEP (L**3/T)

            IN:                               IN:
     CONSTANT HEAD =   6876.4909          CONSTANT HEAD =   38.202727    
   MATRIX EXCHANGE =   0.0000000        MATRIX EXCHANGE =   0.0000000    
     PIPE RECHARGE =   0.0000000          PIPE RECHARGE =   0.0000000    
       PFP STORAGE =   0.0000000            PFP STORAGE =   0.0000000    

     CUMULATIVE IN =   6876.4909               TOTAL IN =   38.202727    

           OUT:                               OUT:
     CONSTANT HEAD =   6876.4909          CONSTANT HEAD =   38.202727    
   MATRIX EXCHANGE =   0.0000000        MATRIX EXCHANGE =   0.0000000    
     PIPE RECHARGE =   0.0000000          PIPE RECHARGE =   0.0000000    
       PFP STORAGE =   0.0000000            PFP STORAGE =   0.0000000    

    CUMULATIVE OUT =   6876.4909              TOTAL OUT =   38.202727    

          IN - OUT =   0.0000000               IN - OUT =   0.0000000    
     PERCENT ERROR =  0.00                PERCENT ERROR =  0.00


 
 ------------------------NODE WATER BUDGET-----------------------
  STRESS PERIOD           2  TIME STEP           8
 TOTAL SIMULATION TIME   180.000000000000     
 
 FLOW TO THE NODE IN M^3/S
 
 NODE     FIXED HEAD     RECHARGE        QWELL  MATRIX EXCH      STORAGE      TUBE_IN     TUBE_OUT         CADS     FHLQ(LQ)       CAUCHY   CAUCHY(LQ)          QLH     IN - OUT
    1    -38.203       0.0000       0.0000       0.0000       0.0000       38.203       0.0000       0.0000       0.0000       0.0000       0.0000       0.0000       0.0000    
    2     38.203       0.0000       0.0000       0.0000       0.0000       0.0000      -38.203       0.0000       0.0000       0.0000       0.0000       0.0000       0.0000    
    3     0.0000       0.0000       0.0000       0.0000       0.0000       0.0000       0.0000       0.0000       0.0000       0.0000       0.0000       0.0000       0.0000    
    4     0.0000       0.0000       0.0000       0.0000       0.0000       0.0000       0.0000       0.0000       0.0000       0.0000       0.0000       0.0000       0.0000    
     1 CALLS TO PCG ROUTINE FOR TIME STEP   8 IN STRESS PERIOD    2
     0 TOTAL ITERATIONS
 
 SOLVING FOR HEAD 
MODFLOW ITER.#  NEWTON-RAPHSON ITER.#   MAXIMUM NODE HEAD CHANGE
         1                   1                  0.0000000000
         1                   2                  0.0000000000
         1                   3                  0.0000000000
 INITIAL HNEW IS AN EXACT SOLUTION.


Solver Convergence Information:
                              HClose:  0.0
                              RClose:  0.0
                           L2-RClose:  0.0
                         Rel-Vol-Err:  0.0
 
MODFLOW ITER.#  NEWTON-RAPHSON ITER.#   MAXIMUM NODE HEAD CHANGE
         1                   1                  0.0000000000
         1                   2                  0.0000000000
         1                   3                  0.0000000000

 NO OUTPUT CONTROL FOR STRESS PERIOD      2   TIME STEP     9
 
 
 CFPM1 CRITERION OF CONVERGENCE:     0.1000000E-05
 CFPM1 MAXIMUM NUMBER OF ITERATIONS:   100
 
 
 CFPM1 RESULTS +++++++++++++++++++++++++++++++++++++++++++++++++++++++
 
 STRESS PERIOD/TIME STEP           2           9
 
NUMBER OF NEWTON RHAPSON ITERATIONS:     3
 
 ------- RESULTS OF FLOW CALCULATION -------
 
NODE#  NODE HEAD[M]   MATRIX HEAD [M] EXCHANGE [M^3/S]      CAD STORAGE    CADS RECHARGE         PFPSFLOW  DIRECT RECHARGE            QWELL             FHLQ           CAUCHY        CAUCHY LQ              QLH             QFIX
    1  10.00    FIX      10.00000         0.000000         0.000000         0.000000         0.000000         0.000000         0.000000         0.000000         0.000000         0.000000         0.000000        -38.20273    
    2  20.10    FIX      10.00000         0.000000         0.000000         0.000000         0.000000         0.000000         0.000000         0.000000         0.000000         0.000000         0.000000         38.20273    
    3  20.10000          10.00000         0.000000         0.000000         0.000000         0.000000         0.000000         0.000000         0.000000         0.000000         0.000000         0.000000         0.000000    
    4  20.10000          10.00000         0.000000         0.000000         0.000000         0.000000         0.000000         0.000000         0.000000         0.000000         0.000000         0.000000         0.000000    
 
TUBE  B  E  FLOW          Q [M^3/SEC]     DIAM.[M]        LEN.[M]        RE         RESIDENCE TIME [S]
   1   1   2   TURB.       -38.20273        1.00000       10.00000 37199750.38085        0.20559
    WARNING! TUBE    2 ACTIVE BUT NO FLOW
   2   2   3   LAMI.         0.00000        1.00000       10.00000        0.00000        0.00000
    WARNING! TUBE    3 ACTIVE BUT NO FLOW
   3   3   4   LAMI.         0.00000        1.00000       10.00000        0.00000        0.00000
 

    BUDGET OF THE PIPE SYSTEM OF TIMESTEP    9 IN STRESS PERIOD    2
------------------------------------------------------------------------

  TOTAL SIMULATION TIME   190.000000000000      S
 
        CUMULATIVE VALUES (L**3)        RATES THIS TIME STEP (L**3/T)

            IN:                               IN:
     CONSTANT HEAD =   7258.5181          CONSTANT HEAD =   38.202727    
   MATRIX EXCHANGE =   0.0000000        MATRIX EXCHANGE =   0.0000000    
     PIPE RECHARGE =   0.0000000          PIPE RECHARGE =   0.0000000    
       PFP STORAGE =   0.0000000            PFP STORAGE =   0.0000000    

     CUMULATIVE IN =   7258.5181               TOTAL IN =   38.202727    

           OUT:                               OUT:
     CONSTANT HEAD =   7258.5181          CONSTANT HEAD =   38.202727    
   MATRIX EXCHANGE =   0.0000000        MATRIX EXCHANGE =   0.0000000    
     PIPE RECHARGE =   0.0000000          PIPE RECHARGE =   0.0000000    
       PFP STORAGE =   0.0000000            PFP STORAGE =   0.0000000    

    CUMULATIVE OUT =   7258.5181              TOTAL OUT =   38.202727    

          IN - OUT =   0.0000000               IN - OUT =   0.0000000    
     PERCENT ERROR =  0.00                PERCENT ERROR =  0.00


 
 ------------------------NODE WATER BUDGET-----------------------
  STRESS PERIOD           2  TIME STEP           9
 TOTAL SIMULATION TIME   190.000000000000     
 
 FLOW TO THE NODE IN M^3/S
 
 NODE     FIXED HEAD     RECHARGE        QWELL  MATRIX EXCH      STORAGE      TUBE_IN     TUBE_OUT         CADS     FHLQ(LQ)       CAUCHY   CAUCHY(LQ)          QLH     IN - OUT
    1    -38.203       0.0000       0.0000       0.0000       0.0000       38.203       0.0000       0.0000       0.0000       0.0000       0.0000       0.0000       0.0000    
    2     38.203       0.0000       0.0000       0.0000       0.0000       0.0000      -38.203       0.0000       0.0000       0.0000       0.0000       0.0000       0.0000    
    3     0.0000       0.0000       0.0000       0.0000       0.0000       0.0000       0.0000       0.0000       0.0000       0.0000       0.0000       0.0000       0.0000    
    4     0.0000       0.0000       0.0000       0.0000       0.0000       0.0000       0.0000       0.0000       0.0000       0.0000       0.0000       0.0000       0.0000    
     1 CALLS TO PCG ROUTINE FOR TIME STEP   9 IN STRESS PERIOD    2
     0 TOTAL ITERATIONS
 
 SOLVING FOR HEAD 
MODFLOW ITER.#  NEWTON-RAPHSON ITER.#   MAXIMUM NODE HEAD CHANGE
         1                   1                  0.0000000000
         1                   2                  0.0000000000
         1                   3                  0.0000000000
 INITIAL HNEW IS AN EXACT SOLUTION.


Solver Convergence Information:
                              HClose:  0.0
                              RClose:  0.0
                           L2-RClose:  0.0
                         Rel-Vol-Err:  0.0
 
MODFLOW ITER.#  NEWTON-RAPHSON ITER.#   MAXIMUM NODE HEAD CHANGE
         1                   1                  0.0000000000
         1                   2                  0.0000000000
         1                   3                  0.0000000000

 OUTPUT CONTROL FOR STRESS PERIOD      2   TIME STEP    10
    PRINT HEAD FOR ALL LAYERS
    SAVE HEAD FOR ALL LAYERS
    SAVE BUDGET
 UBDSV1 SAVING "         STORAGE" ON UNIT 50 AT TIME STEP 10, STRESS PERIOD 2
 UBDSV2 SAVING "   CONSTANT HEAD" ON UNIT 50 AT TIME STEP 10, STRESS PERIOD 2
 UBDSV1 SAVING "FLOW RIGHT FACE " ON UNIT 50 AT TIME STEP 10, STRESS PERIOD 2
 UBDSV1 SAVING "FLOW FRONT FACE " ON UNIT 50 AT TIME STEP 10, STRESS PERIOD 2
 
 
 CFPM1 CRITERION OF CONVERGENCE:     0.1000000E-05
 CFPM1 MAXIMUM NUMBER OF ITERATIONS:   100
 
 
 CFPM1 RESULTS +++++++++++++++++++++++++++++++++++++++++++++++++++++++
 
 STRESS PERIOD/TIME STEP           2          10
 
NUMBER OF NEWTON RHAPSON ITERATIONS:     3
 
 ------- RESULTS OF FLOW CALCULATION -------
 
NODE#  NODE HEAD[M]   MATRIX HEAD [M] EXCHANGE [M^3/S]      CAD STORAGE    CADS RECHARGE         PFPSFLOW  DIRECT RECHARGE            QWELL             FHLQ           CAUCHY        CAUCHY LQ              QLH             QFIX
    1  10.00    FIX      10.00000         0.000000         0.000000         0.000000         0.000000         0.000000         0.000000         0.000000         0.000000         0.000000         0.000000        -38.20273    
    2  20.10    FIX      10.00000         0.000000         0.000000         0.000000         0.000000         0.000000         0.000000         0.000000         0.000000         0.000000         0.000000         38.20273    
    3  20.10000          10.00000         0.000000         0.000000         0.000000         0.000000         0.000000         0.000000         0.000000         0.000000         0.000000         0.000000         0.000000    
    4  20.10000          10.00000         0.000000         0.000000         0.000000         0.000000         0.000000         0.000000         0.000000         0.000000         0.000000         0.000000         0.000000    
 
TUBE  B  E  FLOW          Q [M^3/SEC]     DIAM.[M]        LEN.[M]        RE         RESIDENCE TIME [S]
   1   1   2   TURB.       -38.20273        1.00000       10.00000 37199750.38085        0.20559
    WARNING! TUBE    2 ACTIVE BUT NO FLOW
   2   2   3   LAMI.         0.00000        1.00000       10.00000        0.00000        0.00000
    WARNING! TUBE    3 ACTIVE BUT NO FLOW
   3   3   4   LAMI.         0.00000        1.00000       10.00000        0.00000        0.00000
 

    BUDGET OF THE PIPE SYSTEM OF TIMESTEP   10 IN STRESS PERIOD    2
------------------------------------------------------------------------

  TOTAL SIMULATION TIME   200.000000000000      S
 
        CUMULATIVE VALUES (L**3)        RATES THIS TIME STEP (L**3/T)

            IN:                               IN:
     CONSTANT HEAD =   7640.5454          CONSTANT HEAD =   38.202727    
   MATRIX EXCHANGE =   0.0000000        MATRIX EXCHANGE =   0.0000000    
     PIPE RECHARGE =   0.0000000          PIPE RECHARGE =   0.0000000    
       PFP STORAGE =   0.0000000            PFP STORAGE =   0.0000000    

     CUMULATIVE IN =   7640.5454               TOTAL IN =   38.202727    

           OUT:                               OUT:
     CONSTANT HEAD =   7640.5454          CONSTANT HEAD =   38.202727    
   MATRIX EXCHANGE =   0.0000000        MATRIX EXCHANGE =   0.0000000    
     PIPE RECHARGE =   0.0000000          PIPE RECHARGE =   0.0000000    
       PFP STORAGE =   0.0000000            PFP STORAGE =   0.0000000    

    CUMULATIVE OUT =   7640.5454              TOTAL OUT =   38.202727    

          IN - OUT =   0.0000000               IN - OUT =   0.0000000    
     PERCENT ERROR =  0.00                PERCENT ERROR =  0.00


 
 ------------------------NODE WATER BUDGET-----------------------
  STRESS PERIOD           2  TIME STEP          10
 TOTAL SIMULATION TIME   200.000000000000     
 
 FLOW TO THE NODE IN M^3/S
 
 NODE     FIXED HEAD     RECHARGE        QWELL  MATRIX EXCH      STORAGE      TUBE_IN     TUBE_OUT         CADS     FHLQ(LQ)       CAUCHY   CAUCHY(LQ)          QLH     IN - OUT
    1    -38.203       0.0000       0.0000       0.0000       0.0000       38.203       0.0000       0.0000       0.0000       0.0000       0.0000       0.0000       0.0000    
    2     38.203       0.0000       0.0000       0.0000       0.0000       0.0000      -38.203       0.0000       0.0000       0.0000       0.0000       0.0000       0.0000    
    3     0.0000       0.0000       0.0000       0.0000       0.0000       0.0000       0.0000       0.0000       0.0000       0.0000       0.0000       0.0000       0.0000    
    4     0.0000       0.0000       0.0000       0.0000       0.0000       0.0000       0.0000       0.0000       0.0000       0.0000       0.0000       0.0000       0.0000    
     1 CALLS TO PCG ROUTINE FOR TIME STEP  10 IN STRESS PERIOD    2
     0 TOTAL ITERATIONS

 MAXIMUM HEAD CHANGE FOR EACH ITERATION (1 INDICATES THE FIRST INNER ITERATION):

    HEAD CHANGE    HEAD CHANGE    HEAD CHANGE    HEAD CHANGE    HEAD CHANGE 
   LAYER,ROW,COL  LAYER,ROW,COL  LAYER,ROW,COL  LAYER,ROW,COL  LAYER,ROW,COL
 ---------------------------------------------------------------------------



 MAXIMUM RESIDUAL FOR EACH ITERATION (1 INDICATES THE FIRST INNER ITERATION):

    RESIDUAL       RESIDUAL       RESIDUAL       RESIDUAL       RESIDUAL    
   LAYER,ROW,COL  LAYER,ROW,COL  LAYER,ROW,COL  LAYER,ROW,COL  LAYER,ROW,COL
 ---------------------------------------------------------------------------




1
              HEAD IN LAYER   1 AT END OF TIME STEP  10 IN STRESS PERIOD    2
  ---------------------------------------------------------------------------

          1         2         3         4         5
 ..................................................
   1    10.       10.       10.       10.       10.    
   2    10.       10.       10.       10.       10.    
   3    10.       10.       10.       10.       10.    
   4    10.       10.       10.       10.       10.    

 HEAD WILL BE SAVED ON UNIT   51 AT END OF TIME STEP    10 IN STRESS PERIOD      2



  -------------------------------------------------------------------------------------
  VOLUMETRIC BUDGET FOR ENTIRE MODEL AT END OF TIME STEP   10 IN STRESS PERIOD      2
  -------------------------------------------------------------------------------------

     CUMULATIVE VOLUMES      L**3       RATES FOR THIS TIME STEP      L**3/T
     ------------------                 ------------------------

           IN:                                      IN:
           ---                                      ---
             STORAGE =           0.0000               STORAGE =           0.0000
       CONSTANT HEAD =           0.0000         CONSTANT HEAD =           0.0000
               PIPES =           0.0000                 PIPES =           0.0000

            TOTAL IN =           0.0000              TOTAL IN =           0.0000

          OUT:                                     OUT:
          ----                                     ----
             STORAGE =           0.0000               STORAGE =           0.0000
       CONSTANT HEAD =           0.0000         CONSTANT HEAD =           0.0000
               PIPES =           0.0000                 PIPES =           0.0000

           TOTAL OUT =           0.0000             TOTAL OUT =           0.0000

            IN - OUT =           0.0000              IN - OUT =           0.0000

 PERCENT DISCREPANCY =           0.00     PERCENT DISCREPANCY =           0.00


          TIME SUMMARY AT END OF TIME STEP    10 IN STRESS PERIOD      2
                    SECONDS     MINUTES      HOURS       DAYS        YEARS
                    -----------------------------------------------------------
   TIME STEP LENGTH  10.000     0.16667     2.77778E-03 1.15741E-04 3.16881E-07
 STRESS PERIOD TIME  100.00      1.6667     2.77778E-02 1.15741E-03 3.16881E-06
         TOTAL TIME  200.00      3.3333     5.55556E-02 2.31481E-03 6.33762E-06
 
1
                            STRESS PERIOD NO.      3, LENGTH =   100.0000    
                            -----------------------------------------------

                              NUMBER OF TIME STEPS =    10

                               MULTIPLIER FOR DELT =     1.000

                            INITIAL TIME STEP SIZE =   10.00000    
 
 SOLVING FOR HEAD 
MODFLOW ITER.#  NEWTON-RAPHSON ITER.#   MAXIMUM NODE HEAD CHANGE
         1                   1                  0.0000000000
         1                   2                  0.0000000000
         1                   3                  0.0000000000
 INITIAL HNEW IS AN EXACT SOLUTION.


Solver Convergence Information:
                              HClose:  0.0
                              RClose:  0.0
                           L2-RClose:  0.0
                         Rel-Vol-Err:  0.0
 
MODFLOW ITER.#  NEWTON-RAPHSON ITER.#   MAXIMUM NODE HEAD CHANGE
         1                   1                  0.0000000000
         1                   2                  0.0000000000
         1                   3                  0.0000000000

 NO OUTPUT CONTROL FOR STRESS PERIOD      3   TIME STEP     1
 
 
 CFPM1 CRITERION OF CONVERGENCE:     0.1000000E-05
 CFPM1 MAXIMUM NUMBER OF ITERATIONS:   100
 
 
 CFPM1 RESULTS +++++++++++++++++++++++++++++++++++++++++++++++++++++++
 
 STRESS PERIOD/TIME STEP           3           1
 
NUMBER OF NEWTON RHAPSON ITERATIONS:     3
 
 ------- RESULTS OF FLOW CALCULATION -------
 
NODE#  NODE HEAD[M]   MATRIX HEAD [M] EXCHANGE [M^3/S]      CAD STORAGE    CADS RECHARGE         PFPSFLOW  DIRECT RECHARGE            QWELL             FHLQ           CAUCHY        CAUCHY LQ              QLH             QFIX
    1  10.00    FIX      10.00000         0.000000         0.000000         0.000000         0.000000         0.000000         0.000000         0.000000         0.000000         0.000000         0.000000        -38.20273    
    2  20.10    FIX      10.00000         0.000000         0.000000         0.000000         0.000000         0.000000         0.000000         0.000000         0.000000         0.000000         0.000000         38.20273    
    3  20.10000          10.00000         0.000000         0.000000         0.000000         0.000000         0.000000         0.000000         0.000000         0.000000         0.000000         0.000000         0.000000    
    4  20.10000          10.00000         0.000000         0.000000         0.000000         0.000000         0.000000         0.000000         0.000000         0.000000         0.000000         0.000000         0.000000    
 
TUBE  B  E  FLOW          Q [M^3/SEC]     DIAM.[M]        LEN.[M]        RE         RESIDENCE TIME [S]
   1   1   2   TURB.       -38.20273        1.00000       10.00000 37199750.38085        0.20559
    WARNING! TUBE    2 ACTIVE BUT NO FLOW
   2   2   3   LAMI.         0.00000        1.00000       10.00000        0.00000        0.00000
    WARNING! TUBE    3 ACTIVE BUT NO FLOW
   3   3   4   LAMI.         0.00000        1.00000       10.00000        0.00000        0.00000
 

    BUDGET OF THE PIPE SYSTEM OF TIMESTEP    1 IN STRESS PERIOD    3
------------------------------------------------------------------------

  TOTAL SIMULATION TIME   210.000000000000      S
 
        CUMULATIVE VALUES (L**3)        RATES THIS TIME STEP (L**3/T)

            IN:                               IN:
     CONSTANT HEAD =   8022.5727          CONSTANT HEAD =   38.202727    
   MATRIX EXCHANGE =   0.0000000        MATRIX EXCHANGE =   0.0000000    
     PIPE RECHARGE =   0.0000000          PIPE RECHARGE =   0.0000000    
       PFP STORAGE =   0.0000000            PFP STORAGE =   0.0000000    

     CUMULATIVE IN =   8022.5727               TOTAL IN =   38.202727    

           OUT:                               OUT:
     CONSTANT HEAD =   8022.5727          CONSTANT HEAD =   38.202727    
   MATRIX EXCHANGE =   0.0000000        MATRIX EXCHANGE =   0.0000000    
     PIPE RECHARGE =   0.0000000          PIPE RECHARGE =   0.0000000    
       PFP STORAGE =   0.0000000            PFP STORAGE =   0.0000000    

    CUMULATIVE OUT =   8022.5727              TOTAL OUT =   38.202727    

          IN - OUT =   0.0000000               IN - OUT =   0.0000000    
     PERCENT ERROR =  0.00                PERCENT ERROR =  0.00


 
 ------------------------NODE WATER BUDGET-----------------------
  STRESS PERIOD           3  TIME STEP           1
 TOTAL SIMULATION TIME   210.000000000000     
 
 FLOW TO THE NODE IN M^3/S
 
 NODE     FIXED HEAD     RECHARGE        QWELL  MATRIX EXCH      STORAGE      TUBE_IN     TUBE_OUT         CADS     FHLQ(LQ)       CAUCHY   CAUCHY(LQ)          QLH     IN - OUT
    1    -38.203       0.0000       0.0000       0.0000       0.0000       38.203       0.0000       0.0000       0.0000       0.0000       0.0000       0.0000       0.0000    
    2     38.203       0.0000       0.0000       0.0000       0.0000       0.0000      -38.203       0.0000       0.0000       0.0000       0.0000       0.0000       0.0000    
    3     0.0000       0.0000       0.0000       0.0000       0.0000       0.0000       0.0000       0.0000       0.0000       0.0000       0.0000       0.0000       0.0000    
    4     0.0000       0.0000       0.0000       0.0000       0.0000       0.0000       0.0000       0.0000       0.0000       0.0000       0.0000       0.0000       0.0000    


     1 CALLS TO PCG ROUTINE FOR TIME STEP   1 IN STRESS PERIOD    3
     0 TOTAL ITERATIONS
 
 SOLVING FOR HEAD 
MODFLOW ITER.#  NEWTON-RAPHSON ITER.#   MAXIMUM NODE HEAD CHANGE
         1                   1                  0.0000000000
         1                   2                  0.0000000000
         1                   3                  0.0000000000
 INITIAL HNEW IS AN EXACT SOLUTION.


Solver Convergence Information:
                              HClose:  0.0
                              RClose:  0.0
                           L2-RClose:  0.0
                         Rel-Vol-Err:  0.0
 
MODFLOW ITER.#  NEWTON-RAPHSON ITER.#   MAXIMUM NODE HEAD CHANGE
         1                   1                  0.0000000000
         1                   2                  0.0000000000
         1                   3                  0.0000000000

 NO OUTPUT CONTROL FOR STRESS PERIOD      3   TIME STEP     2
 
 
 CFPM1 CRITERION OF CONVERGENCE:     0.1000000E-05
 CFPM1 MAXIMUM NUMBER OF ITERATIONS:   100
 
 
 CFPM1 RESULTS +++++++++++++++++++++++++++++++++++++++++++++++++++++++
 
 STRESS PERIOD/TIME STEP           3           2
 
NUMBER OF NEWTON RHAPSON ITERATIONS:     3
 
 ------- RESULTS OF FLOW CALCULATION -------
 
NODE#  NODE HEAD[M]   MATRIX HEAD [M] EXCHANGE [M^3/S]      CAD STORAGE    CADS RECHARGE         PFPSFLOW  DIRECT RECHARGE            QWELL             FHLQ           CAUCHY        CAUCHY LQ              QLH             QFIX
    1  10.00    FIX      10.00000         0.000000         0.000000         0.000000         0.000000         0.000000         0.000000         0.000000         0.000000         0.000000         0.000000        -38.20273    
    2  20.10    FIX      10.00000         0.000000         0.000000         0.000000         0.000000         0.000000         0.000000         0.000000         0.000000         0.000000         0.000000         38.20273    
    3  20.10000          10.00000         0.000000         0.000000         0.000000         0.000000         0.000000         0.000000         0.000000         0.000000         0.000000         0.000000         0.000000    
    4  20.10000          10.00000         0.000000         0.000000         0.000000         0.000000         0.000000         0.000000         0.000000         0.000000         0.000000         0.000000         0.000000    
 
TUBE  B  E  FLOW          Q [M^3/SEC]     DIAM.[M]        LEN.[M]        RE         RESIDENCE TIME [S]
   1   1   2   TURB.       -38.20273        1.00000       10.00000 37199750.38085        0.20559
    WARNING! TUBE    2 ACTIVE BUT NO FLOW
   2   2   3   LAMI.         0.00000        1.00000       10.00000        0.00000        0.00000
    WARNING! TUBE    3 ACTIVE BUT NO FLOW
   3   3   4   LAMI.         0.00000        1.00000       10.00000        0.00000        0.00000
 

    BUDGET OF THE PIPE SYSTEM OF TIMESTEP    2 IN STRESS PERIOD    3
------------------------------------------------------------------------

  TOTAL SIMULATION TIME   220.000000000000      S
 
        CUMULATIVE VALUES (L**3)        RATES THIS TIME STEP (L**3/T)

            IN:                               IN:
     CONSTANT HEAD =   8404.5999          CONSTANT HEAD =   38.202727    
   MATRIX EXCHANGE =   0.0000000        MATRIX EXCHANGE =   0.0000000    
     PIPE RECHARGE =   0.0000000          PIPE RECHARGE =   0.0000000    
       PFP STORAGE =   0.0000000            PFP STORAGE =   0.0000000    

     CUMULATIVE IN =   8404.5999               TOTAL IN =   38.202727    

           OUT:                               OUT:
     CONSTANT HEAD =   8404.5999          CONSTANT HEAD =   38.202727    
   MATRIX EXCHANGE =   0.0000000        MATRIX EXCHANGE =   0.0000000    
     PIPE RECHARGE =   0.0000000          PIPE RECHARGE =   0.0000000    
       PFP STORAGE =   0.0000000            PFP STORAGE =   0.0000000    

    CUMULATIVE OUT =   8404.5999              TOTAL OUT =   38.202727    

          IN - OUT =   0.0000000               IN - OUT =   0.0000000    
     PERCENT ERROR =  0.00                PERCENT ERROR =  0.00


 
 ------------------------NODE WATER BUDGET-----------------------
  STRESS PERIOD           3  TIME STEP           2
 TOTAL SIMULATION TIME   220.000000000000     
 
 FLOW TO THE NODE IN M^3/S
 
 NODE     FIXED HEAD     RECHARGE        QWELL  MATRIX EXCH      STORAGE      TUBE_IN     TUBE_OUT         CADS     FHLQ(LQ)       CAUCHY   CAUCHY(LQ)          QLH     IN - OUT
    1    -38.203       0.0000       0.0000       0.0000       0.0000       38.203       0.0000       0.0000       0.0000       0.0000       0.0000       0.0000       0.0000    
    2     38.203       0.0000       0.0000       0.0000       0.0000       0.0000      -38.203       0.0000       0.0000       0.0000       0.0000       0.0000       0.0000    
    3     0.0000       0.0000       0.0000       0.0000       0.0000       0.0000       0.0000       0.0000       0.0000       0.0000       0.0000       0.0000       0.0000    
    4     0.0000       0.0000       0.0000       0.0000       0.0000       0.0000       0.0000       0.0000       0.0000       0.0000       0.0000       0.0000       0.0000    
     1 CALLS TO PCG ROUTINE FOR TIME STEP   2 IN STRESS PERIOD    3
     0 TOTAL ITERATIONS
 
 SOLVING FOR HEAD 
MODFLOW ITER.#  NEWTON-RAPHSON ITER.#   MAXIMUM NODE HEAD CHANGE
         1                   1                  0.0000000000
         1                   2                  0.0000000000
         1                   3                  0.0000000000
 INITIAL HNEW IS AN EXACT SOLUTION.


Solver Convergence Information:
                              HClose:  0.0
                              RClose:  0.0
                           L2-RClose:  0.0
                         Rel-Vol-Err:  0.0
 
MODFLOW ITER.#  NEWTON-RAPHSON ITER.#   MAXIMUM NODE HEAD CHANGE
         1                   1                  0.0000000000
         1                   2                  0.0000000000
         1                   3                  0.0000000000

 NO OUTPUT CONTROL FOR STRESS PERIOD      3   TIME STEP     3
 
 
 CFPM1 CRITERION OF CONVERGENCE:     0.1000000E-05
 CFPM1 MAXIMUM NUMBER OF ITERATIONS:   100
 
 
 CFPM1 RESULTS +++++++++++++++++++++++++++++++++++++++++++++++++++++++
 
 STRESS PERIOD/TIME STEP           3           3
 
NUMBER OF NEWTON RHAPSON ITERATIONS:     3
 
 ------- RESULTS OF FLOW CALCULATION -------
 
NODE#  NODE HEAD[M]   MATRIX HEAD [M] EXCHANGE [M^3/S]      CAD STORAGE    CADS RECHARGE         PFPSFLOW  DIRECT RECHARGE            QWELL             FHLQ           CAUCHY        CAUCHY LQ              QLH             QFIX
    1  10.00    FIX      10.00000         0.000000         0.000000         0.000000         0.000000         0.000000         0.000000         0.000000         0.000000         0.000000         0.000000        -38.20273    
    2  20.10    FIX      10.00000         0.000000         0.000000         0.000000         0.000000         0.000000         0.000000         0.000000         0.000000         0.000000         0.000000         38.20273    
    3  20.10000          10.00000         0.000000         0.000000         0.000000         0.000000         0.000000         0.000000         0.000000         0.000000         0.000000         0.000000         0.000000    
    4  20.10000          10.00000         0.000000         0.000000         0.000000         0.000000         0.000000         0.000000         0.000000         0.000000         0.000000         0.000000         0.000000    
 
TUBE  B  E  FLOW          Q [M^3/SEC]     DIAM.[M]        LEN.[M]        RE         RESIDENCE TIME [S]
   1   1   2   TURB.       -38.20273        1.00000       10.00000 37199750.38085        0.20559
    WARNING! TUBE    2 ACTIVE BUT NO FLOW
   2   2   3   LAMI.         0.00000        1.00000       10.00000        0.00000        0.00000
    WARNING! TUBE    3 ACTIVE BUT NO FLOW
   3   3   4   LAMI.         0.00000        1.00000       10.00000        0.00000        0.00000
 

    BUDGET OF THE PIPE SYSTEM OF TIMESTEP    3 IN STRESS PERIOD    3
------------------------------------------------------------------------

  TOTAL SIMULATION TIME   230.000000000000      S
 
        CUMULATIVE VALUES (L**3)        RATES THIS TIME STEP (L**3/T)

            IN:                               IN:
     CONSTANT HEAD =   8786.6272          CONSTANT HEAD =   38.202727    
   MATRIX EXCHANGE =   0.0000000        MATRIX EXCHANGE =   0.0000000    
     PIPE RECHARGE =   0.0000000          PIPE RECHARGE =   0.0000000    
       PFP STORAGE =   0.0000000            PFP STORAGE =   0.0000000    

     CUMULATIVE IN =   8786.6272               TOTAL IN =   38.202727    

           OUT:                               OUT:
     CONSTANT HEAD =   8786.6272          CONSTANT HEAD =   38.202727    
   MATRIX EXCHANGE =   0.0000000        MATRIX EXCHANGE =   0.0000000    
     PIPE RECHARGE =   0.0000000          PIPE RECHARGE =   0.0000000    
       PFP STORAGE =   0.0000000            PFP STORAGE =   0.0000000    

    CUMULATIVE OUT =   8786.6272              TOTAL OUT =   38.202727    

          IN - OUT =   0.0000000               IN - OUT =   0.0000000    
     PERCENT ERROR =  0.00                PERCENT ERROR =  0.00


 
 ------------------------NODE WATER BUDGET-----------------------
  STRESS PERIOD           3  TIME STEP           3
 TOTAL SIMULATION TIME   230.000000000000     
 
 FLOW TO THE NODE IN M^3/S
 
 NODE     FIXED HEAD     RECHARGE        QWELL  MATRIX EXCH      STORAGE      TUBE_IN     TUBE_OUT         CADS     FHLQ(LQ)       CAUCHY   CAUCHY(LQ)          QLH     IN - OUT
    1    -38.203       0.0000       0.0000       0.0000       0.0000       38.203       0.0000       0.0000       0.0000       0.0000       0.0000       0.0000       0.0000    
    2     38.203       0.0000       0.0000       0.0000       0.0000       0.0000      -38.203       0.0000       0.0000       0.0000       0.0000       0.0000       0.0000    
    3     0.0000       0.0000       0.0000       0.0000       0.0000       0.0000       0.0000       0.0000       0.0000       0.0000       0.0000       0.0000       0.0000    
    4     0.0000       0.0000       0.0000       0.0000       0.0000       0.0000       0.0000       0.0000       0.0000       0.0000       0.0000       0.0000       0.0000    
     1 CALLS TO PCG ROUTINE FOR TIME STEP   3 IN STRESS PERIOD    3
     0 TOTAL ITERATIONS
 
 SOLVING FOR HEAD 
MODFLOW ITER.#  NEWTON-RAPHSON ITER.#   MAXIMUM NODE HEAD CHANGE
         1                   1                  0.0000000000
         1                   2                  0.0000000000
         1                   3                  0.0000000000
 INITIAL HNEW IS AN EXACT SOLUTION.


Solver Convergence Information:
                              HClose:  0.0
                              RClose:  0.0
                           L2-RClose:  0.0
                         Rel-Vol-Err:  0.0
 
MODFLOW ITER.#  NEWTON-RAPHSON ITER.#   MAXIMUM NODE HEAD CHANGE
         1                   1                  0.0000000000
         1                   2                  0.0000000000
         1                   3                  0.0000000000

 NO OUTPUT CONTROL FOR STRESS PERIOD      3   TIME STEP     4
 
 
 CFPM1 CRITERION OF CONVERGENCE:     0.1000000E-05
 CFPM1 MAXIMUM NUMBER OF ITERATIONS:   100
 
 
 CFPM1 RESULTS +++++++++++++++++++++++++++++++++++++++++++++++++++++++
 
 STRESS PERIOD/TIME STEP           3           4
 
NUMBER OF NEWTON RHAPSON ITERATIONS:     3
 
 ------- RESULTS OF FLOW CALCULATION -------
 
NODE#  NODE HEAD[M]   MATRIX HEAD [M] EXCHANGE [M^3/S]      CAD STORAGE    CADS RECHARGE         PFPSFLOW  DIRECT RECHARGE            QWELL             FHLQ           CAUCHY        CAUCHY LQ              QLH             QFIX
    1  10.00    FIX      10.00000         0.000000         0.000000         0.000000         0.000000         0.000000         0.000000         0.000000         0.000000         0.000000         0.000000        -38.20273    
    2  20.10    FIX      10.00000         0.000000         0.000000         0.000000         0.000000         0.000000         0.000000         0.000000         0.000000         0.000000         0.000000         38.20273    
    3  20.10000          10.00000         0.000000         0.000000         0.000000         0.000000         0.000000         0.000000         0.000000         0.000000         0.000000         0.000000         0.000000    
    4  20.10000          10.00000         0.000000         0.000000         0.000000         0.000000         0.000000         0.000000         0.000000         0.000000         0.000000         0.000000         0.000000    
 
TUBE  B  E  FLOW          Q [M^3/SEC]     DIAM.[M]        LEN.[M]        RE         RESIDENCE TIME [S]
   1   1   2   TURB.       -38.20273        1.00000       10.00000 37199750.38085        0.20559
    WARNING! TUBE    2 ACTIVE BUT NO FLOW
   2   2   3   LAMI.         0.00000        1.00000       10.00000        0.00000        0.00000
    WARNING! TUBE    3 ACTIVE BUT NO FLOW
   3   3   4   LAMI.         0.00000        1.00000       10.00000        0.00000        0.00000
 

    BUDGET OF THE PIPE SYSTEM OF TIMESTEP    4 IN STRESS PERIOD    3
------------------------------------------------------------------------

  TOTAL SIMULATION TIME   240.000000000000      S
 
        CUMULATIVE VALUES (L**3)        RATES THIS TIME STEP (L**3/T)

            IN:                               IN:
     CONSTANT HEAD =   9168.6545          CONSTANT HEAD =   38.202727    
   MATRIX EXCHANGE =   0.0000000        MATRIX EXCHANGE =   0.0000000    
     PIPE RECHARGE =   0.0000000          PIPE RECHARGE =   0.0000000    
       PFP STORAGE =   0.0000000            PFP STORAGE =   0.0000000    

     CUMULATIVE IN =   9168.6545               TOTAL IN =   38.202727    

           OUT:                               OUT:
     CONSTANT HEAD =   9168.6545          CONSTANT HEAD =   38.202727    
   MATRIX EXCHANGE =   0.0000000        MATRIX EXCHANGE =   0.0000000    
     PIPE RECHARGE =   0.0000000          PIPE RECHARGE =   0.0000000    
       PFP STORAGE =   0.0000000            PFP STORAGE =   0.0000000    

    CUMULATIVE OUT =   9168.6545              TOTAL OUT =   38.202727    

          IN - OUT =   0.0000000               IN - OUT =   0.0000000    
     PERCENT ERROR =  0.00                PERCENT ERROR =  0.00


 
 ------------------------NODE WATER BUDGET-----------------------
  STRESS PERIOD           3  TIME STEP           4
 TOTAL SIMULATION TIME   240.000000000000     
 
 FLOW TO THE NODE IN M^3/S
 
 NODE     FIXED HEAD     RECHARGE        QWELL  MATRIX EXCH      STORAGE      TUBE_IN     TUBE_OUT         CADS     FHLQ(LQ)       CAUCHY   CAUCHY(LQ)          QLH     IN - OUT
    1    -38.203       0.0000       0.0000       0.0000       0.0000       38.203       0.0000       0.0000       0.0000       0.0000       0.0000       0.0000       0.0000    
    2     38.203       0.0000       0.0000       0.0000       0.0000       0.0000      -38.203       0.0000       0.0000       0.0000       0.0000       0.0000       0.0000    
    3     0.0000       0.0000       0.0000       0.0000       0.0000       0.0000       0.0000       0.0000       0.0000       0.0000       0.0000       0.0000       0.0000    
    4     0.0000       0.0000       0.0000       0.0000       0.0000       0.0000       0.0000       0.0000       0.0000       0.0000       0.0000       0.0000       0.0000    
     1 CALLS TO PCG ROUTINE FOR TIME STEP   4 IN STRESS PERIOD    3
     0 TOTAL ITERATIONS
 
 SOLVING FOR HEAD 
MODFLOW ITER.#  NEWTON-RAPHSON ITER.#   MAXIMUM NODE HEAD CHANGE
         1                   1                  0.0000000000
         1                   2                  0.0000000000
         1                   3                  0.0000000000
 INITIAL HNEW IS AN EXACT SOLUTION.


Solver Convergence Information:
                              HClose:  0.0
                              RClose:  0.0
                           L2-RClose:  0.0
                         Rel-Vol-Err:  0.0
 
MODFLOW ITER.#  NEWTON-RAPHSON ITER.#   MAXIMUM NODE HEAD CHANGE
         1                   1                  0.0000000000
         1                   2                  0.0000000000
         1                   3                  0.0000000000

 NO OUTPUT CONTROL FOR STRESS PERIOD      3   TIME STEP     5
 
 
 CFPM1 CRITERION OF CONVERGENCE:     0.1000000E-05
 CFPM1 MAXIMUM NUMBER OF ITERATIONS:   100
 
 
 CFPM1 RESULTS +++++++++++++++++++++++++++++++++++++++++++++++++++++++
 
 STRESS PERIOD/TIME STEP           3           5
 
NUMBER OF NEWTON RHAPSON ITERATIONS:     3
 
 ------- RESULTS OF FLOW CALCULATION -------
 
NODE#  NODE HEAD[M]   MATRIX HEAD [M] EXCHANGE [M^3/S]      CAD STORAGE    CADS RECHARGE         PFPSFLOW  DIRECT RECHARGE            QWELL             FHLQ           CAUCHY        CAUCHY LQ              QLH             QFIX
    1  10.00    FIX      10.00000         0.000000         0.000000         0.000000         0.000000         0.000000         0.000000         0.000000         0.000000         0.000000         0.000000        -38.20273    
    2  20.10    FIX      10.00000         0.000000         0.000000         0.000000         0.000000         0.000000         0.000000         0.000000         0.000000         0.000000         0.000000         38.20273    
    3  20.10000          10.00000         0.000000         0.000000         0.000000         0.000000         0.000000         0.000000         0.000000         0.000000         0.000000         0.000000         0.000000    
    4  20.10000          10.00000         0.000000         0.000000         0.000000         0.000000         0.000000         0.000000         0.000000         0.000000         0.000000         0.000000         0.000000    
 
TUBE  B  E  FLOW          Q [M^3/SEC]     DIAM.[M]        LEN.[M]        RE         RESIDENCE TIME [S]
   1   1   2   TURB.       -38.20273        1.00000       10.00000 37199750.38085        0.20559
    WARNING! TUBE    2 ACTIVE BUT NO FLOW
   2   2   3   LAMI.         0.00000        1.00000       10.00000        0.00000        0.00000
    WARNING! TUBE    3 ACTIVE BUT NO FLOW
   3   3   4   LAMI.         0.00000        1.00000       10.00000        0.00000        0.00000
 

    BUDGET OF THE PIPE SYSTEM OF TIMESTEP    5 IN STRESS PERIOD    3
------------------------------------------------------------------------

  TOTAL SIMULATION TIME   250.000000000000      S
 
        CUMULATIVE VALUES (L**3)        RATES THIS TIME STEP (L**3/T)

            IN:                               IN:
     CONSTANT HEAD =   9550.6818          CONSTANT HEAD =   38.202727    
   MATRIX EXCHANGE =   0.0000000        MATRIX EXCHANGE =   0.0000000    
     PIPE RECHARGE =   0.0000000          PIPE RECHARGE =   0.0000000    
       PFP STORAGE =   0.0000000            PFP STORAGE =   0.0000000    

     CUMULATIVE IN =   9550.6818               TOTAL IN =   38.202727    

           OUT:                               OUT:
     CONSTANT HEAD =   9550.6818          CONSTANT HEAD =   38.202727    
   MATRIX EXCHANGE =   0.0000000        MATRIX EXCHANGE =   0.0000000    
     PIPE RECHARGE =   0.0000000          PIPE RECHARGE =   0.0000000    
       PFP STORAGE =   0.0000000            PFP STORAGE =   0.0000000    

    CUMULATIVE OUT =   9550.6818              TOTAL OUT =   38.202727    

          IN - OUT =   0.0000000               IN - OUT =   0.0000000    
     PERCENT ERROR =  0.00                PERCENT ERROR =  0.00


 
 ------------------------NODE WATER BUDGET-----------------------
  STRESS PERIOD           3  TIME STEP           5
 TOTAL SIMULATION TIME   250.000000000000     
 
 FLOW TO THE NODE IN M^3/S
 
 NODE     FIXED HEAD     RECHARGE        QWELL  MATRIX EXCH      STORAGE      TUBE_IN     TUBE_OUT         CADS     FHLQ(LQ)       CAUCHY   CAUCHY(LQ)          QLH     IN - OUT
    1    -38.203       0.0000       0.0000       0.0000       0.0000       38.203       0.0000       0.0000       0.0000       0.0000       0.0000       0.0000       0.0000    
    2     38.203       0.0000       0.0000       0.0000       0.0000       0.0000      -38.203       0.0000       0.0000       0.0000       0.0000       0.0000       0.0000    
    3     0.0000       0.0000       0.0000       0.0000       0.0000       0.0000       0.0000       0.0000       0.0000       0.0000       0.0000       0.0000       0.0000    
    4     0.0000       0.0000       0.0000       0.0000       0.0000       0.0000       0.0000       0.0000       0.0000       0.0000       0.0000       0.0000       0.0000    
     1 CALLS TO PCG ROUTINE FOR TIME STEP   5 IN STRESS PERIOD    3
     0 TOTAL ITERATIONS

 MAXIMUM HEAD CHANGE FOR EACH ITERATION (1 INDICATES THE FIRST INNER ITERATION):

    HEAD CHANGE    HEAD CHANGE    HEAD CHANGE    HEAD CHANGE    HEAD CHANGE 
   LAYER,ROW,COL  LAYER,ROW,COL  LAYER,ROW,COL  LAYER,ROW,COL  LAYER,ROW,COL
 ---------------------------------------------------------------------------



 MAXIMUM RESIDUAL FOR EACH ITERATION (1 INDICATES THE FIRST INNER ITERATION):

    RESIDUAL       RESIDUAL       RESIDUAL       RESIDUAL       RESIDUAL    
   LAYER,ROW,COL  LAYER,ROW,COL  LAYER,ROW,COL  LAYER,ROW,COL  LAYER,ROW,COL
 ---------------------------------------------------------------------------




 
 SOLVING FOR HEAD 
MODFLOW ITER.#  NEWTON-RAPHSON ITER.#   MAXIMUM NODE HEAD CHANGE
         1                   1                  0.0000000000
         1                   2                  0.0000000000
         1                   3                  0.0000000000
 INITIAL HNEW IS AN EXACT SOLUTION.


Solver Convergence Information:
                              HClose:  0.0
                              RClose:  0.0
                           L2-RClose:  0.0
                         Rel-Vol-Err:  0.0
 
MODFLOW ITER.#  NEWTON-RAPHSON ITER.#   MAXIMUM NODE HEAD CHANGE
         1                   1                  0.0000000000
         1                   2                  0.0000000000
         1                   3                  0.0000000000

 NO OUTPUT CONTROL FOR STRESS PERIOD      3   TIME STEP     6
 
 
 CFPM1 CRITERION OF CONVERGENCE:     0.1000000E-05
 CFPM1 MAXIMUM NUMBER OF ITERATIONS:   100
 
 
 CFPM1 RESULTS +++++++++++++++++++++++++++++++++++++++++++++++++++++++
 
 STRESS PERIOD/TIME STEP           3           6
 
NUMBER OF NEWTON RHAPSON ITERATIONS:     3
 
 ------- RESULTS OF FLOW CALCULATION -------
 
NODE#  NODE HEAD[M]   MATRIX HEAD [M] EXCHANGE [M^3/S]      CAD STORAGE    CADS RECHARGE         PFPSFLOW  DIRECT RECHARGE            QWELL             FHLQ           CAUCHY        CAUCHY LQ              QLH             QFIX
    1  10.00    FIX      10.00000         0.000000         0.000000         0.000000         0.000000         0.000000         0.000000         0.000000         0.000000         0.000000         0.000000        -38.20273    
    2  20.10    FIX      10.00000         0.000000         0.000000         0.000000         0.000000         0.000000         0.000000         0.000000         0.000000         0.000000         0.000000         38.20273    
    3  20.10000          10.00000         0.000000         0.000000         0.000000         0.000000         0.000000         0.000000         0.000000         0.000000         0.000000         0.000000         0.000000    
    4  20.10000          10.00000         0.000000         0.000000         0.000000         0.000000         0.000000         0.000000         0.000000         0.000000         0.000000         0.000000         0.000000    
 
TUBE  B  E  FLOW          Q [M^3/SEC]     DIAM.[M]        LEN.[M]        RE         RESIDENCE TIME [S]
   1   1   2   TURB.       -38.20273        1.00000       10.00000 37199750.38085        0.20559
    WARNING! TUBE    2 ACTIVE BUT NO FLOW
   2   2   3   LAMI.         0.00000        1.00000       10.00000        0.00000        0.00000
    WARNING! TUBE    3 ACTIVE BUT NO FLOW
   3   3   4   LAMI.         0.00000        1.00000       10.00000        0.00000        0.00000
 

    BUDGET OF THE PIPE SYSTEM OF TIMESTEP    6 IN STRESS PERIOD    3
------------------------------------------------------------------------

  TOTAL SIMULATION TIME   260.000000000000      S
 
        CUMULATIVE VALUES (L**3)        RATES THIS TIME STEP (L**3/T)

            IN:                               IN:
     CONSTANT HEAD =   9932.7090          CONSTANT HEAD =   38.202727    
   MATRIX EXCHANGE =   0.0000000        MATRIX EXCHANGE =   0.0000000    
     PIPE RECHARGE =   0.0000000          PIPE RECHARGE =   0.0000000    
       PFP STORAGE =   0.0000000            PFP STORAGE =   0.0000000    

     CUMULATIVE IN =   9932.7090               TOTAL IN =   38.202727    

           OUT:                               OUT:
     CONSTANT HEAD =   9932.7090          CONSTANT HEAD =   38.202727    
   MATRIX EXCHANGE =   0.0000000        MATRIX EXCHANGE =   0.0000000    
     PIPE RECHARGE =   0.0000000          PIPE RECHARGE =   0.0000000    
       PFP STORAGE =   0.0000000            PFP STORAGE =   0.0000000    

    CUMULATIVE OUT =   9932.7090              TOTAL OUT =   38.202727    

          IN - OUT =   0.0000000               IN - OUT =   0.0000000    
     PERCENT ERROR =  0.00                PERCENT ERROR =  0.00


 
 ------------------------NODE WATER BUDGET-----------------------
  STRESS PERIOD           3  TIME STEP           6
 TOTAL SIMULATION TIME   260.000000000000     
 
 FLOW TO THE NODE IN M^3/S
 
 NODE     FIXED HEAD     RECHARGE        QWELL  MATRIX EXCH      STORAGE      TUBE_IN     TUBE_OUT         CADS     FHLQ(LQ)       CAUCHY   CAUCHY(LQ)          QLH     IN - OUT
    1    -38.203       0.0000       0.0000       0.0000       0.0000       38.203       0.0000       0.0000       0.0000       0.0000       0.0000       0.0000       0.0000    
    2     38.203       0.0000       0.0000       0.0000       0.0000       0.0000      -38.203       0.0000       0.0000       0.0000       0.0000       0.0000       0.0000    
    3     0.0000       0.0000       0.0000       0.0000       0.0000       0.0000       0.0000       0.0000       0.0000       0.0000       0.0000       0.0000       0.0000    
    4     0.0000       0.0000       0.0000       0.0000       0.0000       0.0000       0.0000       0.0000       0.0000       0.0000       0.0000       0.0000       0.0000    
     1 CALLS TO PCG ROUTINE FOR TIME STEP   6 IN STRESS PERIOD    3
     0 TOTAL ITERATIONS
 
 SOLVING FOR HEAD 
MODFLOW ITER.#  NEWTON-RAPHSON ITER.#   MAXIMUM NODE HEAD CHANGE
         1                   1                  0.0000000000
         1                   2                  0.0000000000
         1                   3                  0.0000000000
 INITIAL HNEW IS AN EXACT SOLUTION.


Solver Convergence Information:
                              HClose:  0.0
                              RClose:  0.0
                           L2-RClose:  0.0
                         Rel-Vol-Err:  0.0
 
MODFLOW ITER.#  NEWTON-RAPHSON ITER.#   MAXIMUM NODE HEAD CHANGE
         1                   1                  0.0000000000
         1                   2                  0.0000000000
         1                   3                  0.0000000000

 NO OUTPUT CONTROL FOR STRESS PERIOD      3   TIME STEP     7
 
 
 CFPM1 CRITERION OF CONVERGENCE:     0.1000000E-05
 CFPM1 MAXIMUM NUMBER OF ITERATIONS:   100
 
 
 CFPM1 RESULTS +++++++++++++++++++++++++++++++++++++++++++++++++++++++
 
 STRESS PERIOD/TIME STEP           3           7
 
NUMBER OF NEWTON RHAPSON ITERATIONS:     3
 
 ------- RESULTS OF FLOW CALCULATION -------
 
NODE#  NODE HEAD[M]   MATRIX HEAD [M] EXCHANGE [M^3/S]      CAD STORAGE    CADS RECHARGE         PFPSFLOW  DIRECT RECHARGE            QWELL             FHLQ           CAUCHY        CAUCHY LQ              QLH             QFIX
    1  10.00    FIX      10.00000         0.000000         0.000000         0.000000         0.000000         0.000000         0.000000         0.000000         0.000000         0.000000         0.000000        -38.20273    
    2  20.10    FIX      10.00000         0.000000         0.000000         0.000000         0.000000         0.000000         0.000000         0.000000         0.000000         0.000000         0.000000         38.20273    
    3  20.10000          10.00000         0.000000         0.000000         0.000000         0.000000         0.000000         0.000000         0.000000         0.000000         0.000000         0.000000         0.000000    
    4  20.10000          10.00000         0.000000         0.000000         0.000000         0.000000         0.000000         0.000000         0.000000         0.000000         0.000000         0.000000         0.000000    
 
TUBE  B  E  FLOW          Q [M^3/SEC]     DIAM.[M]        LEN.[M]        RE         RESIDENCE TIME [S]
   1   1   2   TURB.       -38.20273        1.00000       10.00000 37199750.38085        0.20559
    WARNING! TUBE    2 ACTIVE BUT NO FLOW
   2   2   3   LAMI.         0.00000        1.00000       10.00000        0.00000        0.00000
    WARNING! TUBE    3 ACTIVE BUT NO FLOW
   3   3   4   LAMI.         0.00000        1.00000       10.00000        0.00000        0.00000
 

    BUDGET OF THE PIPE SYSTEM OF TIMESTEP    7 IN STRESS PERIOD    3
------------------------------------------------------------------------

  TOTAL SIMULATION TIME   270.000000000000      S
 
        CUMULATIVE VALUES (L**3)        RATES THIS TIME STEP (L**3/T)

            IN:                               IN:
     CONSTANT HEAD =   10314.736          CONSTANT HEAD =   38.202727    
   MATRIX EXCHANGE =   0.0000000        MATRIX EXCHANGE =   0.0000000    
     PIPE RECHARGE =   0.0000000          PIPE RECHARGE =   0.0000000    
       PFP STORAGE =   0.0000000            PFP STORAGE =   0.0000000    

     CUMULATIVE IN =   10314.736               TOTAL IN =   38.202727    

           OUT:                               OUT:
     CONSTANT HEAD =   10314.736          CONSTANT HEAD =   38.202727    
   MATRIX EXCHANGE =   0.0000000        MATRIX EXCHANGE =   0.0000000    
     PIPE RECHARGE =   0.0000000          PIPE RECHARGE =   0.0000000    
       PFP STORAGE =   0.0000000            PFP STORAGE =   0.0000000    

    CUMULATIVE OUT =   10314.736              TOTAL OUT =   38.202727    

          IN - OUT =   0.0000000               IN - OUT =   0.0000000    
     PERCENT ERROR =  0.00                PERCENT ERROR =  0.00


 
 ------------------------NODE WATER BUDGET-----------------------
  STRESS PERIOD           3  TIME STEP           7
 TOTAL SIMULATION TIME   270.000000000000     
 
 FLOW TO THE NODE IN M^3/S
 
 NODE     FIXED HEAD     RECHARGE        QWELL  MATRIX EXCH      STORAGE      TUBE_IN     TUBE_OUT         CADS     FHLQ(LQ)       CAUCHY   CAUCHY(LQ)          QLH     IN - OUT
    1    -38.203       0.0000       0.0000       0.0000       0.0000       38.203       0.0000       0.0000       0.0000       0.0000       0.0000       0.0000       0.0000    
    2     38.203       0.0000       0.0000       0.0000       0.0000       0.0000      -38.203       0.0000       0.0000       0.0000       0.0000       0.0000       0.0000    
    3     0.0000       0.0000       0.0000       0.0000       0.0000       0.0000       0.0000       0.0000       0.0000       0.0000       0.0000       0.0000       0.0000    
    4     0.0000       0.0000       0.0000       0.0000       0.0000       0.0000       0.0000       0.0000       0.0000       0.0000       0.0000       0.0000       0.0000    
     1 CALLS TO PCG ROUTINE FOR TIME STEP   7 IN STRESS PERIOD    3
     0 TOTAL ITERATIONS
 
 SOLVING FOR HEAD 
MODFLOW ITER.#  NEWTON-RAPHSON ITER.#   MAXIMUM NODE HEAD CHANGE
         1                   1                  0.0000000000
         1                   2                  0.0000000000
         1                   3                  0.0000000000
 INITIAL HNEW IS AN EXACT SOLUTION.


Solver Convergence Information:
                              HClose:  0.0
                              RClose:  0.0
                           L2-RClose:  0.0
                         Rel-Vol-Err:  0.0
 
MODFLOW ITER.#  NEWTON-RAPHSON ITER.#   MAXIMUM NODE HEAD CHANGE
         1                   1                  0.0000000000
         1                   2                  0.0000000000
         1                   3                  0.0000000000

 NO OUTPUT CONTROL FOR STRESS PERIOD      3   TIME STEP     8
 
 
 CFPM1 CRITERION OF CONVERGENCE:     0.1000000E-05
 CFPM1 MAXIMUM NUMBER OF ITERATIONS:   100
 
 
 CFPM1 RESULTS +++++++++++++++++++++++++++++++++++++++++++++++++++++++
 
 STRESS PERIOD/TIME STEP           3           8
 
NUMBER OF NEWTON RHAPSON ITERATIONS:     3
 
 ------- RESULTS OF FLOW CALCULATION -------
 
NODE#  NODE HEAD[M]   MATRIX HEAD [M] EXCHANGE [M^3/S]      CAD STORAGE    CADS RECHARGE         PFPSFLOW  DIRECT RECHARGE            QWELL             FHLQ           CAUCHY        CAUCHY LQ              QLH             QFIX
    1  10.00    FIX      10.00000         0.000000         0.000000         0.000000         0.000000         0.000000         0.000000         0.000000         0.000000         0.000000         0.000000        -38.20273    
    2  20.10    FIX      10.00000         0.000000         0.000000         0.000000         0.000000         0.000000         0.000000         0.000000         0.000000         0.000000         0.000000         38.20273    
    3  20.10000          10.00000         0.000000         0.000000         0.000000         0.000000         0.000000         0.000000         0.000000         0.000000         0.000000         0.000000         0.000000    
    4  20.10000          10.00000         0.000000         0.000000         0.000000         0.000000         0.000000         0.000000         0.000000         0.000000         0.000000         0.000000         0.000000    
 
TUBE  B  E  FLOW          Q [M^3/SEC]     DIAM.[M]        LEN.[M]        RE         RESIDENCE TIME [S]
   1   1   2   TURB.       -38.20273        1.00000       10.00000 37199750.38085        0.20559
    WARNING! TUBE    2 ACTIVE BUT NO FLOW
   2   2   3   LAMI.         0.00000        1.00000       10.00000        0.00000        0.00000
    WARNING! TUBE    3 ACTIVE BUT NO FLOW
   3   3   4   LAMI.         0.00000        1.00000       10.00000        0.00000        0.00000
 

    BUDGET OF THE PIPE SYSTEM OF TIMESTEP    8 IN STRESS PERIOD    3
------------------------------------------------------------------------

  TOTAL SIMULATION TIME   280.000000000000      S
 
        CUMULATIVE VALUES (L**3)        RATES THIS TIME STEP (L**3/T)

            IN:                               IN:
     CONSTANT HEAD =   10696.764          CONSTANT HEAD =   38.202727    
   MATRIX EXCHANGE =   0.0000000        MATRIX EXCHANGE =   0.0000000    
     PIPE RECHARGE =   0.0000000          PIPE RECHARGE =   0.0000000    
       PFP STORAGE =   0.0000000            PFP STORAGE =   0.0000000    

     CUMULATIVE IN =   10696.764               TOTAL IN =   38.202727    

           OUT:                               OUT:
     CONSTANT HEAD =   10696.764          CONSTANT HEAD =   38.202727    
   MATRIX EXCHANGE =   0.0000000        MATRIX EXCHANGE =   0.0000000    
     PIPE RECHARGE =   0.0000000          PIPE RECHARGE =   0.0000000    
       PFP STORAGE =   0.0000000            PFP STORAGE =   0.0000000    

    CUMULATIVE OUT =   10696.764              TOTAL OUT =   38.202727    

          IN - OUT =   0.0000000               IN - OUT =   0.0000000    
     PERCENT ERROR =  0.00                PERCENT ERROR =  0.00


 
 ------------------------NODE WATER BUDGET-----------------------
  STRESS PERIOD           3  TIME STEP           8
 TOTAL SIMULATION TIME   280.000000000000     
 
 FLOW TO THE NODE IN M^3/S
 
 NODE     FIXED HEAD     RECHARGE        QWELL  MATRIX EXCH      STORAGE      TUBE_IN     TUBE_OUT         CADS     FHLQ(LQ)       CAUCHY   CAUCHY(LQ)          QLH     IN - OUT
    1    -38.203       0.0000       0.0000       0.0000       0.0000       38.203       0.0000       0.0000       0.0000       0.0000       0.0000       0.0000       0.0000    
    2     38.203       0.0000       0.0000       0.0000       0.0000       0.0000      -38.203       0.0000       0.0000       0.0000       0.0000       0.0000       0.0000    
    3     0.0000       0.0000       0.0000       0.0000       0.0000       0.0000       0.0000       0.0000       0.0000       0.0000       0.0000       0.0000       0.0000    
    4     0.0000       0.0000       0.0000       0.0000       0.0000       0.0000       0.0000       0.0000       0.0000       0.0000       0.0000       0.0000       0.0000    
     1 CALLS TO PCG ROUTINE FOR TIME STEP   8 IN STRESS PERIOD    3
     0 TOTAL ITERATIONS
 
 SOLVING FOR HEAD 
MODFLOW ITER.#  NEWTON-RAPHSON ITER.#   MAXIMUM NODE HEAD CHANGE
         1                   1                  0.0000000000
         1                   2                  0.0000000000
         1                   3                  0.0000000000
 INITIAL HNEW IS AN EXACT SOLUTION.


Solver Convergence Information:
                              HClose:  0.0
                              RClose:  0.0
                           L2-RClose:  0.0
                         Rel-Vol-Err:  0.0
 
MODFLOW ITER.#  NEWTON-RAPHSON ITER.#   MAXIMUM NODE HEAD CHANGE
         1                   1                  0.0000000000
         1                   2                  0.0000000000
         1                   3                  0.0000000000

 NO OUTPUT CONTROL FOR STRESS PERIOD      3   TIME STEP     9
 
 
 CFPM1 CRITERION OF CONVERGENCE:     0.1000000E-05
 CFPM1 MAXIMUM NUMBER OF ITERATIONS:   100
 
 
 CFPM1 RESULTS +++++++++++++++++++++++++++++++++++++++++++++++++++++++
 
 STRESS PERIOD/TIME STEP           3           9
 
NUMBER OF NEWTON RHAPSON ITERATIONS:     3
 
 ------- RESULTS OF FLOW CALCULATION -------
 
NODE#  NODE HEAD[M]   MATRIX HEAD [M] EXCHANGE [M^3/S]      CAD STORAGE    CADS RECHARGE         PFPSFLOW  DIRECT RECHARGE            QWELL             FHLQ           CAUCHY        CAUCHY LQ              QLH             QFIX
    1  10.00    FIX      10.00000         0.000000         0.000000         0.000000         0.000000         0.000000         0.000000         0.000000         0.000000         0.000000         0.000000        -38.20273    
    2  20.10    FIX      10.00000         0.000000         0.000000         0.000000         0.000000         0.000000         0.000000         0.000000         0.000000         0.000000         0.000000         38.20273    
    3  20.10000          10.00000         0.000000         0.000000         0.000000         0.000000         0.000000         0.000000         0.000000         0.000000         0.000000         0.000000         0.000000    
    4  20.10000          10.00000         0.000000         0.000000         0.000000         0.000000         0.000000         0.000000         0.000000         0.000000         0.000000         0.000000         0.000000    
 
TUBE  B  E  FLOW          Q [M^3/SEC]     DIAM.[M]        LEN.[M]        RE         RESIDENCE TIME [S]
   1   1   2   TURB.       -38.20273        1.00000       10.00000 37199750.38085        0.20559
    WARNING! TUBE    2 ACTIVE BUT NO FLOW
   2   2   3   LAMI.         0.00000        1.00000       10.00000        0.00000        0.00000
    WARNING! TUBE    3 ACTIVE BUT NO FLOW
   3   3   4   LAMI.         0.00000        1.00000       10.00000        0.00000        0.00000
 

    BUDGET OF THE PIPE SYSTEM OF TIMESTEP    9 IN STRESS PERIOD    3
------------------------------------------------------------------------

  TOTAL SIMULATION TIME   290.000000000000      S
 
        CUMULATIVE VALUES (L**3)        RATES THIS TIME STEP (L**3/T)

            IN:                               IN:
     CONSTANT HEAD =   11078.791          CONSTANT HEAD =   38.202727    
   MATRIX EXCHANGE =   0.0000000        MATRIX EXCHANGE =   0.0000000    
     PIPE RECHARGE =   0.0000000          PIPE RECHARGE =   0.0000000    
       PFP STORAGE =   0.0000000            PFP STORAGE =   0.0000000    

     CUMULATIVE IN =   11078.791               TOTAL IN =   38.202727    

           OUT:                               OUT:
     CONSTANT HEAD =   11078.791          CONSTANT HEAD =   38.202727    
   MATRIX EXCHANGE =   0.0000000        MATRIX EXCHANGE =   0.0000000    
     PIPE RECHARGE =   0.0000000          PIPE RECHARGE =   0.0000000    
       PFP STORAGE =   0.0000000            PFP STORAGE =   0.0000000    

    CUMULATIVE OUT =   11078.791              TOTAL OUT =   38.202727    

          IN - OUT =   0.0000000               IN - OUT =   0.0000000    
     PERCENT ERROR =  0.00                PERCENT ERROR =  0.00


 
 ------------------------NODE WATER BUDGET-----------------------
  STRESS PERIOD           3  TIME STEP           9
 TOTAL SIMULATION TIME   290.000000000000     
 
 FLOW TO THE NODE IN M^3/S
 
 NODE     FIXED HEAD     RECHARGE        QWELL  MATRIX EXCH      STORAGE      TUBE_IN     TUBE_OUT         CADS     FHLQ(LQ)       CAUCHY   CAUCHY(LQ)          QLH     IN - OUT
    1    -38.203       0.0000       0.0000       0.0000       0.0000       38.203       0.0000       0.0000       0.0000       0.0000       0.0000       0.0000       0.0000    
    2     38.203       0.0000       0.0000       0.0000       0.0000       0.0000      -38.203       0.0000       0.0000       0.0000       0.0000       0.0000       0.0000    
    3     0.0000       0.0000       0.0000       0.0000       0.0000       0.0000       0.0000       0.0000       0.0000       0.0000       0.0000       0.0000       0.0000    
    4     0.0000       0.0000       0.0000       0.0000       0.0000       0.0000       0.0000       0.0000       0.0000       0.0000       0.0000       0.0000       0.0000    
     1 CALLS TO PCG ROUTINE FOR TIME STEP   9 IN STRESS PERIOD    3
     0 TOTAL ITERATIONS
 
 SOLVING FOR HEAD 
MODFLOW ITER.#  NEWTON-RAPHSON ITER.#   MAXIMUM NODE HEAD CHANGE
         1                   1                  0.0000000000
         1                   2                  0.0000000000
         1                   3                  0.0000000000
 INITIAL HNEW IS AN EXACT SOLUTION.


Solver Convergence Information:
                              HClose:  0.0
                              RClose:  0.0
                           L2-RClose:  0.0
                         Rel-Vol-Err:  0.0
 
MODFLOW ITER.#  NEWTON-RAPHSON ITER.#   MAXIMUM NODE HEAD CHANGE
         1                   1                  0.0000000000
         1                   2                  0.0000000000
         1                   3                  0.0000000000

 OUTPUT CONTROL FOR STRESS PERIOD      3   TIME STEP    10
    PRINT HEAD FOR ALL LAYERS
    SAVE HEAD FOR ALL LAYERS
    SAVE BUDGET
 UBDSV1 SAVING "         STORAGE" ON UNIT 50 AT TIME STEP 10, STRESS PERIOD 3
 UBDSV2 SAVING "   CONSTANT HEAD" ON UNIT 50 AT TIME STEP 10, STRESS PERIOD 3
 UBDSV1 SAVING "FLOW RIGHT FACE " ON UNIT 50 AT TIME STEP 10, STRESS PERIOD 3
 UBDSV1 SAVING "FLOW FRONT FACE " ON UNIT 50 AT TIME STEP 10, STRESS PERIOD 3
 
 
 CFPM1 CRITERION OF CONVERGENCE:     0.1000000E-05
 CFPM1 MAXIMUM NUMBER OF ITERATIONS:   100
 
 
 CFPM1 RESULTS +++++++++++++++++++++++++++++++++++++++++++++++++++++++
 
 STRESS PERIOD/TIME STEP           3          10
 
NUMBER OF NEWTON RHAPSON ITERATIONS:     3
 
 ------- RESULTS OF FLOW CALCULATION -------
 
NODE#  NODE HEAD[M]   MATRIX HEAD [M] EXCHANGE [M^3/S]      CAD STORAGE    CADS RECHARGE         PFPSFLOW  DIRECT RECHARGE            QWELL             FHLQ           CAUCHY        CAUCHY LQ              QLH             QFIX
    1  10.00    FIX      10.00000         0.000000         0.000000         0.000000         0.000000         0.000000         0.000000         0.000000         0.000000         0.000000         0.000000        -38.20273    
    2  20.10    FIX      10.00000         0.000000         0.000000         0.000000         0.000000         0.000000         0.000000         0.000000         0.000000         0.000000         0.000000         38.20273    
    3  20.10000          10.00000         0.000000         0.000000         0.000000         0.000000         0.000000         0.000000         0.000000         0.000000         0.000000         0.000000         0.000000    
    4  20.10000          10.00000         0.000000         0.000000         0.000000         0.000000         0.000000         0.000000         0.000000         0.000000         0.000000         0.000000         0.000000    
 
TUBE  B  E  FLOW          Q [M^3/SEC]     DIAM.[M]        LEN.[M]        RE         RESIDENCE TIME [S]
   1   1   2   TURB.       -38.20273        1.00000       10.00000 37199750.38085        0.20559
    WARNING! TUBE    2 ACTIVE BUT NO FLOW
   2   2   3   LAMI.         0.00000        1.00000       10.00000        0.00000        0.00000
    WARNING! TUBE    3 ACTIVE BUT NO FLOW
   3   3   4   LAMI.         0.00000        1.00000       10.00000        0.00000        0.00000
 

    BUDGET OF THE PIPE SYSTEM OF TIMESTEP   10 IN STRESS PERIOD    3
------------------------------------------------------------------------

  TOTAL SIMULATION TIME   300.000000000000      S
 
        CUMULATIVE VALUES (L**3)        RATES THIS TIME STEP (L**3/T)

            IN:                               IN:
     CONSTANT HEAD =   11460.818          CONSTANT HEAD =   38.202727    
   MATRIX EXCHANGE =   0.0000000        MATRIX EXCHANGE =   0.0000000    
     PIPE RECHARGE =   0.0000000          PIPE RECHARGE =   0.0000000    
       PFP STORAGE =   0.0000000            PFP STORAGE =   0.0000000    

     CUMULATIVE IN =   11460.818               TOTAL IN =   38.202727    

           OUT:                               OUT:
     CONSTANT HEAD =   11460.818          CONSTANT HEAD =   38.202727    
   MATRIX EXCHANGE =   0.0000000        MATRIX EXCHANGE =   0.0000000    
     PIPE RECHARGE =   0.0000000          PIPE RECHARGE =   0.0000000    
       PFP STORAGE =   0.0000000            PFP STORAGE =   0.0000000    

    CUMULATIVE OUT =   11460.818              TOTAL OUT =   38.202727    

          IN - OUT =   0.0000000               IN - OUT =   0.0000000    
     PERCENT ERROR =  0.00                PERCENT ERROR =  0.00


 
 ------------------------NODE WATER BUDGET-----------------------
  STRESS PERIOD           3  TIME STEP          10
 TOTAL SIMULATION TIME   300.000000000000     
 
 FLOW TO THE NODE IN M^3/S
 
 NODE     FIXED HEAD     RECHARGE        QWELL  MATRIX EXCH      STORAGE      TUBE_IN     TUBE_OUT         CADS     FHLQ(LQ)       CAUCHY   CAUCHY(LQ)          QLH     IN - OUT
    1    -38.203       0.0000       0.0000       0.0000       0.0000       38.203       0.0000       0.0000       0.0000       0.0000       0.0000       0.0000       0.0000    
    2     38.203       0.0000       0.0000       0.0000       0.0000       0.0000      -38.203       0.0000       0.0000       0.0000       0.0000       0.0000       0.0000    
    3     0.0000       0.0000       0.0000       0.0000       0.0000       0.0000       0.0000       0.0000       0.0000       0.0000       0.0000       0.0000       0.0000    
    4     0.0000       0.0000       0.0000       0.0000       0.0000       0.0000       0.0000       0.0000       0.0000       0.0000       0.0000       0.0000       0.0000    
     1 CALLS TO PCG ROUTINE FOR TIME STEP  10 IN STRESS PERIOD    3
     0 TOTAL ITERATIONS

 MAXIMUM HEAD CHANGE FOR EACH ITERATION (1 INDICATES THE FIRST INNER ITERATION):

    HEAD CHANGE    HEAD CHANGE    HEAD CHANGE    HEAD CHANGE    HEAD CHANGE 
   LAYER,ROW,COL  LAYER,ROW,COL  LAYER,ROW,COL  LAYER,ROW,COL  LAYER,ROW,COL
 ---------------------------------------------------------------------------



 MAXIMUM RESIDUAL FOR EACH ITERATION (1 INDICATES THE FIRST INNER ITERATION):

    RESIDUAL       RESIDUAL       RESIDUAL       RESIDUAL       RESIDUAL    
   LAYER,ROW,COL  LAYER,ROW,COL  LAYER,ROW,COL  LAYER,ROW,COL  LAYER,ROW,COL
 ---------------------------------------------------------------------------




1
              HEAD IN LAYER   1 AT END OF TIME STEP  10 IN STRESS PERIOD    3
  ---------------------------------------------------------------------------

          1         2         3         4         5
 ..................................................
   1    10.       10.       10.       10.       10.    
   2    10.       10.       10.       10.       10.    
   3    10.       10.       10.       10.       10.    
   4    10.       10.       10.       10.       10.    

 HEAD WILL BE SAVED ON UNIT   51 AT END OF TIME STEP    10 IN STRESS PERIOD      3



  -------------------------------------------------------------------------------------
  VOLUMETRIC BUDGET FOR ENTIRE MODEL AT END OF TIME STEP   10 IN STRESS PERIOD      3
  -------------------------------------------------------------------------------------

     CUMULATIVE VOLUMES      L**3       RATES FOR THIS TIME STEP      L**3/T
     ------------------                 ------------------------

           IN:                                      IN:
           ---                                      ---
             STORAGE =           0.0000               STORAGE =           0.0000
       CONSTANT HEAD =           0.0000         CONSTANT HEAD =           0.0000
               PIPES =           0.0000                 PIPES =           0.0000

            TOTAL IN =           0.0000              TOTAL IN =           0.0000

          OUT:                                     OUT:
          ----                                     ----
             STORAGE =           0.0000               STORAGE =           0.0000
       CONSTANT HEAD =           0.0000         CONSTANT HEAD =           0.0000
               PIPES =           0.0000                 PIPES =           0.0000

           TOTAL OUT =           0.0000             TOTAL OUT =           0.0000

            IN - OUT =           0.0000              IN - OUT =           0.0000

 PERCENT DISCREPANCY =           0.00     PERCENT DISCREPANCY =           0.00


          TIME SUMMARY AT END OF TIME STEP    10 IN STRESS PERIOD      3
                    SECONDS     MINUTES      HOURS       DAYS        YEARS
                    -----------------------------------------------------------
   TIME STEP LENGTH  10.000     0.16667     2.77778E-03 1.15741E-04 3.16881E-07
 STRESS PERIOD TIME  100.00      1.6667     2.77778E-02 1.15741E-03 3.16881E-06
         TOTAL TIME  300.00      5.0000     8.33333E-02 3.47222E-03 9.50643E-06
 
1
                            STRESS PERIOD NO.      4, LENGTH =   100.0000    
                            -----------------------------------------------

                              NUMBER OF TIME STEPS =    10

                               MULTIPLIER FOR DELT =     1.000

                            INITIAL TIME STEP SIZE =   10.00000    
 
 SOLVING FOR HEAD 
MODFLOW ITER.#  NEWTON-RAPHSON ITER.#   MAXIMUM NODE HEAD CHANGE
         1                   1                  0.0000000000
         1                   2                  0.0000000000
         1                   3                  0.0000000000
 INITIAL HNEW IS AN EXACT SOLUTION.


Solver Convergence Information:
                              HClose:  0.0
                              RClose:  0.0
                           L2-RClose:  0.0
                         Rel-Vol-Err:  0.0
 
MODFLOW ITER.#  NEWTON-RAPHSON ITER.#   MAXIMUM NODE HEAD CHANGE
         1                   1                  0.0000000000
         1                   2                  0.0000000000
         1                   3                  0.0000000000

 NO OUTPUT CONTROL FOR STRESS PERIOD      4   TIME STEP     1
 
 
 CFPM1 CRITERION OF CONVERGENCE:     0.1000000E-05
 CFPM1 MAXIMUM NUMBER OF ITERATIONS:   100
 
 
 CFPM1 RESULTS +++++++++++++++++++++++++++++++++++++++++++++++++++++++
 
 STRESS PERIOD/TIME STEP           4           1
 
NUMBER OF NEWTON RHAPSON ITERATIONS:     3
 
 ------- RESULTS OF FLOW CALCULATION -------
 
NODE#  NODE HEAD[M]   MATRIX HEAD [M] EXCHANGE [M^3/S]      CAD STORAGE    CADS RECHARGE         PFPSFLOW  DIRECT RECHARGE            QWELL             FHLQ           CAUCHY        CAUCHY LQ              QLH             QFIX
    1  10.00    FIX      10.00000         0.000000         0.000000         0.000000         0.000000         0.000000         0.000000         0.000000         0.000000         0.000000         0.000000        -38.20273    
    2  20.10    FIX      10.00000         0.000000         0.000000         0.000000         0.000000         0.000000         0.000000         0.000000         0.000000         0.000000         0.000000         38.20273    
    3  20.10000          10.00000         0.000000         0.000000         0.000000         0.000000         0.000000         0.000000         0.000000         0.000000         0.000000         0.000000         0.000000    
    4  20.10000          10.00000         0.000000         0.000000         0.000000         0.000000         0.000000         0.000000         0.000000         0.000000         0.000000         0.000000         0.000000    
 
TUBE  B  E  FLOW          Q [M^3/SEC]     DIAM.[M]        LEN.[M]        RE         RESIDENCE TIME [S]
   1   1   2   TURB.       -38.20273        1.00000       10.00000 37199750.38085        0.20559
    WARNING! TUBE    2 ACTIVE BUT NO FLOW
   2   2   3   LAMI.         0.00000        1.00000       10.00000        0.00000        0.00000
    WARNING! TUBE    3 ACTIVE BUT NO FLOW
   3   3   4   LAMI.         0.00000        1.00000       10.00000        0.00000        0.00000
 

    BUDGET OF THE PIPE SYSTEM OF TIMESTEP    1 IN STRESS PERIOD    4
------------------------------------------------------------------------

  TOTAL SIMULATION TIME   310.000000000000      S
 
        CUMULATIVE VALUES (L**3)        RATES THIS TIME STEP (L**3/T)

            IN:                               IN:
     CONSTANT HEAD =   11842.845          CONSTANT HEAD =   38.202727    
   MATRIX EXCHANGE =   0.0000000        MATRIX EXCHANGE =   0.0000000    
     PIPE RECHARGE =   0.0000000          PIPE RECHARGE =   0.0000000    
       PFP STORAGE =   0.0000000            PFP STORAGE =   0.0000000    

     CUMULATIVE IN =   11842.845               TOTAL IN =   38.202727    

           OUT:                               OUT:
     CONSTANT HEAD =   11842.845          CONSTANT HEAD =   38.202727    
   MATRIX EXCHANGE =   0.0000000        MATRIX EXCHANGE =   0.0000000    
     PIPE RECHARGE =   0.0000000          PIPE RECHARGE =   0.0000000    
       PFP STORAGE =   0.0000000            PFP STORAGE =   0.0000000    

    CUMULATIVE OUT =   11842.845              TOTAL OUT =   38.202727    

          IN - OUT =   0.0000000               IN - OUT =   0.0000000    
     PERCENT ERROR =  0.00                PERCENT ERROR =  0.00


 
 ------------------------NODE WATER BUDGET-----------------------
  STRESS PERIOD           4  TIME STEP           1
 TOTAL SIMULATION TIME   310.000000000000     
 
 FLOW TO THE NODE IN M^3/S
 
 NODE     FIXED HEAD     RECHARGE        QWELL  MATRIX EXCH      STORAGE      TUBE_IN     TUBE_OUT         CADS     FHLQ(LQ)       CAUCHY   CAUCHY(LQ)          QLH     IN - OUT
    1    -38.203       0.0000       0.0000       0.0000       0.0000       38.203       0.0000       0.0000       0.0000       0.0000       0.0000       0.0000       0.0000    
    2     38.203       0.0000       0.0000       0.0000       0.0000       0.0000      -38.203       0.0000       0.0000       0.0000       0.0000       0.0000       0.0000    
    3     0.0000       0.0000       0.0000       0.0000       0.0000       0.0000       0.0000       0.0000       0.0000       0.0000       0.0000       0.0000       0.0000    
    4     0.0000       0.0000       0.0000       0.0000       0.0000       0.0000       0.0000       0.0000       0.0000       0.0000       0.0000       0.0000       0.0000    


     1 CALLS TO PCG ROUTINE FOR TIME STEP   1 IN STRESS PERIOD    4
     0 TOTAL ITERATIONS
 
 SOLVING FOR HEAD 
MODFLOW ITER.#  NEWTON-RAPHSON ITER.#   MAXIMUM NODE HEAD CHANGE
         1                   1                  0.0000000000
         1                   2                  0.0000000000
         1                   3                  0.0000000000
 INITIAL HNEW IS AN EXACT SOLUTION.


Solver Convergence Information:
                              HClose:  0.0
                              RClose:  0.0
                           L2-RClose:  0.0
                         Rel-Vol-Err:  0.0
 
MODFLOW ITER.#  NEWTON-RAPHSON ITER.#   MAXIMUM NODE HEAD CHANGE
         1                   1                  0.0000000000
         1                   2                  0.0000000000
         1                   3                  0.0000000000

 NO OUTPUT CONTROL FOR STRESS PERIOD      4   TIME STEP     2
 
 
 CFPM1 CRITERION OF CONVERGENCE:     0.1000000E-05
 CFPM1 MAXIMUM NUMBER OF ITERATIONS:   100
 
 
 CFPM1 RESULTS +++++++++++++++++++++++++++++++++++++++++++++++++++++++
 
 STRESS PERIOD/TIME STEP           4           2
 
NUMBER OF NEWTON RHAPSON ITERATIONS:     3
 
 ------- RESULTS OF FLOW CALCULATION -------
 
NODE#  NODE HEAD[M]   MATRIX HEAD [M] EXCHANGE [M^3/S]      CAD STORAGE    CADS RECHARGE         PFPSFLOW  DIRECT RECHARGE            QWELL             FHLQ           CAUCHY        CAUCHY LQ              QLH             QFIX
    1  10.00    FIX      10.00000         0.000000         0.000000         0.000000         0.000000         0.000000         0.000000         0.000000         0.000000         0.000000         0.000000        -38.20273    
    2  20.10    FIX      10.00000         0.000000         0.000000         0.000000         0.000000         0.000000         0.000000         0.000000         0.000000         0.000000         0.000000         38.20273    
    3  20.10000          10.00000         0.000000         0.000000         0.000000         0.000000         0.000000         0.000000         0.000000         0.000000         0.000000         0.000000         0.000000    
    4  20.10000          10.00000         0.000000         0.000000         0.000000         0.000000         0.000000         0.000000         0.000000         0.000000         0.000000         0.000000         0.000000    
 
TUBE  B  E  FLOW          Q [M^3/SEC]     DIAM.[M]        LEN.[M]        RE         RESIDENCE TIME [S]
   1   1   2   TURB.       -38.20273        1.00000       10.00000 37199750.38085        0.20559
    WARNING! TUBE    2 ACTIVE BUT NO FLOW
   2   2   3   LAMI.         0.00000        1.00000       10.00000        0.00000        0.00000
    WARNING! TUBE    3 ACTIVE BUT NO FLOW
   3   3   4   LAMI.         0.00000        1.00000       10.00000        0.00000        0.00000
 

    BUDGET OF THE PIPE SYSTEM OF TIMESTEP    2 IN STRESS PERIOD    4
------------------------------------------------------------------------

  TOTAL SIMULATION TIME   320.000000000000      S
 
        CUMULATIVE VALUES (L**3)        RATES THIS TIME STEP (L**3/T)

            IN:                               IN:
     CONSTANT HEAD =   12224.873          CONSTANT HEAD =   38.202727    
   MATRIX EXCHANGE =   0.0000000        MATRIX EXCHANGE =   0.0000000    
     PIPE RECHARGE =   0.0000000          PIPE RECHARGE =   0.0000000    
       PFP STORAGE =   0.0000000            PFP STORAGE =   0.0000000    

     CUMULATIVE IN =   12224.873               TOTAL IN =   38.202727    

           OUT:                               OUT:
     CONSTANT HEAD =   12224.873          CONSTANT HEAD =   38.202727    
   MATRIX EXCHANGE =   0.0000000        MATRIX EXCHANGE =   0.0000000    
     PIPE RECHARGE =   0.0000000          PIPE RECHARGE =   0.0000000    
       PFP STORAGE =   0.0000000            PFP STORAGE =   0.0000000    

    CUMULATIVE OUT =   12224.873              TOTAL OUT =   38.202727    

          IN - OUT =   0.0000000               IN - OUT =   0.0000000    
     PERCENT ERROR =  0.00                PERCENT ERROR =  0.00


 
 ------------------------NODE WATER BUDGET-----------------------
  STRESS PERIOD           4  TIME STEP           2
 TOTAL SIMULATION TIME   320.000000000000     
 
 FLOW TO THE NODE IN M^3/S
 
 NODE     FIXED HEAD     RECHARGE        QWELL  MATRIX EXCH      STORAGE      TUBE_IN     TUBE_OUT         CADS     FHLQ(LQ)       CAUCHY   CAUCHY(LQ)          QLH     IN - OUT
    1    -38.203       0.0000       0.0000       0.0000       0.0000       38.203       0.0000       0.0000       0.0000       0.0000       0.0000       0.0000       0.0000    
    2     38.203       0.0000       0.0000       0.0000       0.0000       0.0000      -38.203       0.0000       0.0000       0.0000       0.0000       0.0000       0.0000    
    3     0.0000       0.0000       0.0000       0.0000       0.0000       0.0000       0.0000       0.0000       0.0000       0.0000       0.0000       0.0000       0.0000    
    4     0.0000       0.0000       0.0000       0.0000       0.0000       0.0000       0.0000       0.0000       0.0000       0.0000       0.0000       0.0000       0.0000    
     1 CALLS TO PCG ROUTINE FOR TIME STEP   2 IN STRESS PERIOD    4
     0 TOTAL ITERATIONS
 
 SOLVING FOR HEAD 
MODFLOW ITER.#  NEWTON-RAPHSON ITER.#   MAXIMUM NODE HEAD CHANGE
         1                   1                  0.0000000000
         1                   2                  0.0000000000
         1                   3                  0.0000000000
 INITIAL HNEW IS AN EXACT SOLUTION.


Solver Convergence Information:
                              HClose:  0.0
                              RClose:  0.0
                           L2-RClose:  0.0
                         Rel-Vol-Err:  0.0
 
MODFLOW ITER.#  NEWTON-RAPHSON ITER.#   MAXIMUM NODE HEAD CHANGE
         1                   1                  0.0000000000
         1                   2                  0.0000000000
         1                   3                  0.0000000000

 NO OUTPUT CONTROL FOR STRESS PERIOD      4   TIME STEP     3
 
 
 CFPM1 CRITERION OF CONVERGENCE:     0.1000000E-05
 CFPM1 MAXIMUM NUMBER OF ITERATIONS:   100
 
 
 CFPM1 RESULTS +++++++++++++++++++++++++++++++++++++++++++++++++++++++
 
 STRESS PERIOD/TIME STEP           4           3
 
NUMBER OF NEWTON RHAPSON ITERATIONS:     3
 
 ------- RESULTS OF FLOW CALCULATION -------
 
NODE#  NODE HEAD[M]   MATRIX HEAD [M] EXCHANGE [M^3/S]      CAD STORAGE    CADS RECHARGE         PFPSFLOW  DIRECT RECHARGE            QWELL             FHLQ           CAUCHY        CAUCHY LQ              QLH             QFIX
    1  10.00    FIX      10.00000         0.000000         0.000000         0.000000         0.000000         0.000000         0.000000         0.000000         0.000000         0.000000         0.000000        -38.20273    
    2  20.10    FIX      10.00000         0.000000         0.000000         0.000000         0.000000         0.000000         0.000000         0.000000         0.000000         0.000000         0.000000         38.20273    
    3  20.10000          10.00000         0.000000         0.000000         0.000000         0.000000         0.000000         0.000000         0.000000         0.000000         0.000000         0.000000         0.000000    
    4  20.10000          10.00000         0.000000         0.000000         0.000000         0.000000         0.000000         0.000000         0.000000         0.000000         0.000000         0.000000         0.000000    
 
TUBE  B  E  FLOW          Q [M^3/SEC]     DIAM.[M]        LEN.[M]        RE         RESIDENCE TIME [S]
   1   1   2   TURB.       -38.20273        1.00000       10.00000 37199750.38085        0.20559
    WARNING! TUBE    2 ACTIVE BUT NO FLOW
   2   2   3   LAMI.         0.00000        1.00000       10.00000        0.00000        0.00000
    WARNING! TUBE    3 ACTIVE BUT NO FLOW
   3   3   4   LAMI.         0.00000        1.00000       10.00000        0.00000        0.00000
 

    BUDGET OF THE PIPE SYSTEM OF TIMESTEP    3 IN STRESS PERIOD    4
------------------------------------------------------------------------

  TOTAL SIMULATION TIME   330.000000000000      S
 
        CUMULATIVE VALUES (L**3)        RATES THIS TIME STEP (L**3/T)

            IN:                               IN:
     CONSTANT HEAD =   12606.900          CONSTANT HEAD =   38.202727    
   MATRIX EXCHANGE =   0.0000000        MATRIX EXCHANGE =   0.0000000    
     PIPE RECHARGE =   0.0000000          PIPE RECHARGE =   0.0000000    
       PFP STORAGE =   0.0000000            PFP STORAGE =   0.0000000    

     CUMULATIVE IN =   12606.900               TOTAL IN =   38.202727    

           OUT:                               OUT:
     CONSTANT HEAD =   12606.900          CONSTANT HEAD =   38.202727    
   MATRIX EXCHANGE =   0.0000000        MATRIX EXCHANGE =   0.0000000    
     PIPE RECHARGE =   0.0000000          PIPE RECHARGE =   0.0000000    
       PFP STORAGE =   0.0000000            PFP STORAGE =   0.0000000    

    CUMULATIVE OUT =   12606.900              TOTAL OUT =   38.202727    

          IN - OUT =   0.0000000               IN - OUT =   0.0000000    
     PERCENT ERROR =  0.00                PERCENT ERROR =  0.00


 
 ------------------------NODE WATER BUDGET-----------------------
  STRESS PERIOD           4  TIME STEP           3
 TOTAL SIMULATION TIME   330.000000000000     
 
 FLOW TO THE NODE IN M^3/S
 
 NODE     FIXED HEAD     RECHARGE        QWELL  MATRIX EXCH      STORAGE      TUBE_IN     TUBE_OUT         CADS     FHLQ(LQ)       CAUCHY   CAUCHY(LQ)          QLH     IN - OUT
    1    -38.203       0.0000       0.0000       0.0000       0.0000       38.203       0.0000       0.0000       0.0000       0.0000       0.0000       0.0000       0.0000    
    2     38.203       0.0000       0.0000       0.0000       0.0000       0.0000      -38.203       0.0000       0.0000       0.0000       0.0000       0.0000       0.0000    
    3     0.0000       0.0000       0.0000       0.0000       0.0000       0.0000       0.0000       0.0000       0.0000       0.0000       0.0000       0.0000       0.0000    
    4     0.0000       0.0000       0.0000       0.0000       0.0000       0.0000       0.0000       0.0000       0.0000       0.0000       0.0000       0.0000       0.0000    
     1 CALLS TO PCG ROUTINE FOR TIME STEP   3 IN STRESS PERIOD    4
     0 TOTAL ITERATIONS
 
 SOLVING FOR HEAD 
MODFLOW ITER.#  NEWTON-RAPHSON ITER.#   MAXIMUM NODE HEAD CHANGE
         1                   1                  0.0000000000
         1                   2                  0.0000000000
         1                   3                  0.0000000000
 INITIAL HNEW IS AN EXACT SOLUTION.


Solver Convergence Information:
                              HClose:  0.0
                              RClose:  0.0
                           L2-RClose:  0.0
                         Rel-Vol-Err:  0.0
 
MODFLOW ITER.#  NEWTON-RAPHSON ITER.#   MAXIMUM NODE HEAD CHANGE
         1                   1                  0.0000000000
         1                   2                  0.0000000000
         1                   3                  0.0000000000

 NO OUTPUT CONTROL FOR STRESS PERIOD      4   TIME STEP     4
 
 
 CFPM1 CRITERION OF CONVERGENCE:     0.1000000E-05
 CFPM1 MAXIMUM NUMBER OF ITERATIONS:   100
 
 
 CFPM1 RESULTS +++++++++++++++++++++++++++++++++++++++++++++++++++++++
 
 STRESS PERIOD/TIME STEP           4           4
 
NUMBER OF NEWTON RHAPSON ITERATIONS:     3
 
 ------- RESULTS OF FLOW CALCULATION -------
 
NODE#  NODE HEAD[M]   MATRIX HEAD [M] EXCHANGE [M^3/S]      CAD STORAGE    CADS RECHARGE         PFPSFLOW  DIRECT RECHARGE            QWELL             FHLQ           CAUCHY        CAUCHY LQ              QLH             QFIX
    1  10.00    FIX      10.00000         0.000000         0.000000         0.000000         0.000000         0.000000         0.000000         0.000000         0.000000         0.000000         0.000000        -38.20273    
    2  20.10    FIX      10.00000         0.000000         0.000000         0.000000         0.000000         0.000000         0.000000         0.000000         0.000000         0.000000         0.000000         38.20273    
    3  20.10000          10.00000         0.000000         0.000000         0.000000         0.000000         0.000000         0.000000         0.000000         0.000000         0.000000         0.000000         0.000000    
    4  20.10000          10.00000         0.000000         0.000000         0.000000         0.000000         0.000000         0.000000         0.000000         0.000000         0.000000         0.000000         0.000000    
 
TUBE  B  E  FLOW          Q [M^3/SEC]     DIAM.[M]        LEN.[M]        RE         RESIDENCE TIME [S]
   1   1   2   TURB.       -38.20273        1.00000       10.00000 37199750.38085        0.20559
    WARNING! TUBE    2 ACTIVE BUT NO FLOW
   2   2   3   LAMI.         0.00000        1.00000       10.00000        0.00000        0.00000
    WARNING! TUBE    3 ACTIVE BUT NO FLOW
   3   3   4   LAMI.         0.00000        1.00000       10.00000        0.00000        0.00000
 

    BUDGET OF THE PIPE SYSTEM OF TIMESTEP    4 IN STRESS PERIOD    4
------------------------------------------------------------------------

  TOTAL SIMULATION TIME   340.000000000000      S
 
        CUMULATIVE VALUES (L**3)        RATES THIS TIME STEP (L**3/T)

            IN:                               IN:
     CONSTANT HEAD =   12988.927          CONSTANT HEAD =   38.202727    
   MATRIX EXCHANGE =   0.0000000        MATRIX EXCHANGE =   0.0000000    
     PIPE RECHARGE =   0.0000000          PIPE RECHARGE =   0.0000000    
       PFP STORAGE =   0.0000000            PFP STORAGE =   0.0000000    

     CUMULATIVE IN =   12988.927               TOTAL IN =   38.202727    

           OUT:                               OUT:
     CONSTANT HEAD =   12988.927          CONSTANT HEAD =   38.202727    
   MATRIX EXCHANGE =   0.0000000        MATRIX EXCHANGE =   0.0000000    
     PIPE RECHARGE =   0.0000000          PIPE RECHARGE =   0.0000000    
       PFP STORAGE =   0.0000000            PFP STORAGE =   0.0000000    

    CUMULATIVE OUT =   12988.927              TOTAL OUT =   38.202727    

          IN - OUT =   0.0000000               IN - OUT =   0.0000000    
     PERCENT ERROR =  0.00                PERCENT ERROR =  0.00


 
 ------------------------NODE WATER BUDGET-----------------------
  STRESS PERIOD           4  TIME STEP           4
 TOTAL SIMULATION TIME   340.000000000000     
 
 FLOW TO THE NODE IN M^3/S
 
 NODE     FIXED HEAD     RECHARGE        QWELL  MATRIX EXCH      STORAGE      TUBE_IN     TUBE_OUT         CADS     FHLQ(LQ)       CAUCHY   CAUCHY(LQ)          QLH     IN - OUT
    1    -38.203       0.0000       0.0000       0.0000       0.0000       38.203       0.0000       0.0000       0.0000       0.0000       0.0000       0.0000       0.0000    
    2     38.203       0.0000       0.0000       0.0000       0.0000       0.0000      -38.203       0.0000       0.0000       0.0000       0.0000       0.0000       0.0000    
    3     0.0000       0.0000       0.0000       0.0000       0.0000       0.0000       0.0000       0.0000       0.0000       0.0000       0.0000       0.0000       0.0000    
    4     0.0000       0.0000       0.0000       0.0000       0.0000       0.0000       0.0000       0.0000       0.0000       0.0000       0.0000       0.0000       0.0000    
     1 CALLS TO PCG ROUTINE FOR TIME STEP   4 IN STRESS PERIOD    4
     0 TOTAL ITERATIONS
 
 SOLVING FOR HEAD 
MODFLOW ITER.#  NEWTON-RAPHSON ITER.#   MAXIMUM NODE HEAD CHANGE
         1                   1                  0.0000000000
         1                   2                  0.0000000000
         1                   3                  0.0000000000
 INITIAL HNEW IS AN EXACT SOLUTION.


Solver Convergence Information:
                              HClose:  0.0
                              RClose:  0.0
                           L2-RClose:  0.0
                         Rel-Vol-Err:  0.0
 
MODFLOW ITER.#  NEWTON-RAPHSON ITER.#   MAXIMUM NODE HEAD CHANGE
         1                   1                  0.0000000000
         1                   2                  0.0000000000
         1                   3                  0.0000000000

 NO OUTPUT CONTROL FOR STRESS PERIOD      4   TIME STEP     5
 
 
 CFPM1 CRITERION OF CONVERGENCE:     0.1000000E-05
 CFPM1 MAXIMUM NUMBER OF ITERATIONS:   100
 
 
 CFPM1 RESULTS +++++++++++++++++++++++++++++++++++++++++++++++++++++++
 
 STRESS PERIOD/TIME STEP           4           5
 
NUMBER OF NEWTON RHAPSON ITERATIONS:     3
 
 ------- RESULTS OF FLOW CALCULATION -------
 
NODE#  NODE HEAD[M]   MATRIX HEAD [M] EXCHANGE [M^3/S]      CAD STORAGE    CADS RECHARGE         PFPSFLOW  DIRECT RECHARGE            QWELL             FHLQ           CAUCHY        CAUCHY LQ              QLH             QFIX
    1  10.00    FIX      10.00000         0.000000         0.000000         0.000000         0.000000         0.000000         0.000000         0.000000         0.000000         0.000000         0.000000        -38.20273    
    2  20.10    FIX      10.00000         0.000000         0.000000         0.000000         0.000000         0.000000         0.000000         0.000000         0.000000         0.000000         0.000000         38.20273    
    3  20.10000          10.00000         0.000000         0.000000         0.000000         0.000000         0.000000         0.000000         0.000000         0.000000         0.000000         0.000000         0.000000    
    4  20.10000          10.00000         0.000000         0.000000         0.000000         0.000000         0.000000         0.000000         0.000000         0.000000         0.000000         0.000000         0.000000    
 
TUBE  B  E  FLOW          Q [M^3/SEC]     DIAM.[M]        LEN.[M]        RE         RESIDENCE TIME [S]
   1   1   2   TURB.       -38.20273        1.00000       10.00000 37199750.38085        0.20559
    WARNING! TUBE    2 ACTIVE BUT NO FLOW
   2   2   3   LAMI.         0.00000        1.00000       10.00000        0.00000        0.00000
    WARNING! TUBE    3 ACTIVE BUT NO FLOW
   3   3   4   LAMI.         0.00000        1.00000       10.00000        0.00000        0.00000
 

    BUDGET OF THE PIPE SYSTEM OF TIMESTEP    5 IN STRESS PERIOD    4
------------------------------------------------------------------------

  TOTAL SIMULATION TIME   350.000000000000      S
 
        CUMULATIVE VALUES (L**3)        RATES THIS TIME STEP (L**3/T)

            IN:                               IN:
     CONSTANT HEAD =   13370.954          CONSTANT HEAD =   38.202727    
   MATRIX EXCHANGE =   0.0000000        MATRIX EXCHANGE =   0.0000000    
     PIPE RECHARGE =   0.0000000          PIPE RECHARGE =   0.0000000    
       PFP STORAGE =   0.0000000            PFP STORAGE =   0.0000000    

     CUMULATIVE IN =   13370.954               TOTAL IN =   38.202727    

           OUT:                               OUT:
     CONSTANT HEAD =   13370.954          CONSTANT HEAD =   38.202727    
   MATRIX EXCHANGE =   0.0000000        MATRIX EXCHANGE =   0.0000000    
     PIPE RECHARGE =   0.0000000          PIPE RECHARGE =   0.0000000    
       PFP STORAGE =   0.0000000            PFP STORAGE =   0.0000000    

    CUMULATIVE OUT =   13370.954              TOTAL OUT =   38.202727    

          IN - OUT =   0.0000000               IN - OUT =   0.0000000    
     PERCENT ERROR =  0.00                PERCENT ERROR =  0.00


 
 ------------------------NODE WATER BUDGET-----------------------
  STRESS PERIOD           4  TIME STEP           5
 TOTAL SIMULATION TIME   350.000000000000     
 
 FLOW TO THE NODE IN M^3/S
 
 NODE     FIXED HEAD     RECHARGE        QWELL  MATRIX EXCH      STORAGE      TUBE_IN     TUBE_OUT         CADS     FHLQ(LQ)       CAUCHY   CAUCHY(LQ)          QLH     IN - OUT
    1    -38.203       0.0000       0.0000       0.0000       0.0000       38.203       0.0000       0.0000       0.0000       0.0000       0.0000       0.0000       0.0000    
    2     38.203       0.0000       0.0000       0.0000       0.0000       0.0000      -38.203       0.0000       0.0000       0.0000       0.0000       0.0000       0.0000    
    3     0.0000       0.0000       0.0000       0.0000       0.0000       0.0000       0.0000       0.0000       0.0000       0.0000       0.0000       0.0000       0.0000    
    4     0.0000       0.0000       0.0000       0.0000       0.0000       0.0000       0.0000       0.0000       0.0000       0.0000       0.0000       0.0000       0.0000    
     1 CALLS TO PCG ROUTINE FOR TIME STEP   5 IN STRESS PERIOD    4
     0 TOTAL ITERATIONS

 MAXIMUM HEAD CHANGE FOR EACH ITERATION (1 INDICATES THE FIRST INNER ITERATION):

    HEAD CHANGE    HEAD CHANGE    HEAD CHANGE    HEAD CHANGE    HEAD CHANGE 
   LAYER,ROW,COL  LAYER,ROW,COL  LAYER,ROW,COL  LAYER,ROW,COL  LAYER,ROW,COL
 ---------------------------------------------------------------------------



 MAXIMUM RESIDUAL FOR EACH ITERATION (1 INDICATES THE FIRST INNER ITERATION):

    RESIDUAL       RESIDUAL       RESIDUAL       RESIDUAL       RESIDUAL    
   LAYER,ROW,COL  LAYER,ROW,COL  LAYER,ROW,COL  LAYER,ROW,COL  LAYER,ROW,COL
 ---------------------------------------------------------------------------




 
 SOLVING FOR HEAD 
MODFLOW ITER.#  NEWTON-RAPHSON ITER.#   MAXIMUM NODE HEAD CHANGE
         1                   1                  0.0000000000
         1                   2                  0.0000000000
         1                   3                  0.0000000000
 INITIAL HNEW IS AN EXACT SOLUTION.


Solver Convergence Information:
                              HClose:  0.0
                              RClose:  0.0
                           L2-RClose:  0.0
                         Rel-Vol-Err:  0.0
 
MODFLOW ITER.#  NEWTON-RAPHSON ITER.#   MAXIMUM NODE HEAD CHANGE
         1                   1                  0.0000000000
         1                   2                  0.0000000000
         1                   3                  0.0000000000

 NO OUTPUT CONTROL FOR STRESS PERIOD      4   TIME STEP     6
 
 
 CFPM1 CRITERION OF CONVERGENCE:     0.1000000E-05
 CFPM1 MAXIMUM NUMBER OF ITERATIONS:   100
 
 
 CFPM1 RESULTS +++++++++++++++++++++++++++++++++++++++++++++++++++++++
 
 STRESS PERIOD/TIME STEP           4           6
 
NUMBER OF NEWTON RHAPSON ITERATIONS:     3
 
 ------- RESULTS OF FLOW CALCULATION -------
 
NODE#  NODE HEAD[M]   MATRIX HEAD [M] EXCHANGE [M^3/S]      CAD STORAGE    CADS RECHARGE         PFPSFLOW  DIRECT RECHARGE            QWELL             FHLQ           CAUCHY        CAUCHY LQ              QLH             QFIX
    1  10.00    FIX      10.00000         0.000000         0.000000         0.000000         0.000000         0.000000         0.000000         0.000000         0.000000         0.000000         0.000000        -38.20273    
    2  20.10    FIX      10.00000         0.000000         0.000000         0.000000         0.000000         0.000000         0.000000         0.000000         0.000000         0.000000         0.000000         38.20273    
    3  20.10000          10.00000         0.000000         0.000000         0.000000         0.000000         0.000000         0.000000         0.000000         0.000000         0.000000         0.000000         0.000000    
    4  20.10000          10.00000         0.000000         0.000000         0.000000         0.000000         0.000000         0.000000         0.000000         0.000000         0.000000         0.000000         0.000000    
 
TUBE  B  E  FLOW          Q [M^3/SEC]     DIAM.[M]        LEN.[M]        RE         RESIDENCE TIME [S]
   1   1   2   TURB.       -38.20273        1.00000       10.00000 37199750.38085        0.20559
    WARNING! TUBE    2 ACTIVE BUT NO FLOW
   2   2   3   LAMI.         0.00000        1.00000       10.00000        0.00000        0.00000
    WARNING! TUBE    3 ACTIVE BUT NO FLOW
   3   3   4   LAMI.         0.00000        1.00000       10.00000        0.00000        0.00000
 

    BUDGET OF THE PIPE SYSTEM OF TIMESTEP    6 IN STRESS PERIOD    4
------------------------------------------------------------------------

  TOTAL SIMULATION TIME   360.000000000000      S
 
        CUMULATIVE VALUES (L**3)        RATES THIS TIME STEP (L**3/T)

            IN:                               IN:
     CONSTANT HEAD =   13752.982          CONSTANT HEAD =   38.202727    
   MATRIX EXCHANGE =   0.0000000        MATRIX EXCHANGE =   0.0000000    
     PIPE RECHARGE =   0.0000000          PIPE RECHARGE =   0.0000000    
       PFP STORAGE =   0.0000000            PFP STORAGE =   0.0000000    

     CUMULATIVE IN =   13752.982               TOTAL IN =   38.202727    

           OUT:                               OUT:
     CONSTANT HEAD =   13752.982          CONSTANT HEAD =   38.202727    
   MATRIX EXCHANGE =   0.0000000        MATRIX EXCHANGE =   0.0000000    
     PIPE RECHARGE =   0.0000000          PIPE RECHARGE =   0.0000000    
       PFP STORAGE =   0.0000000            PFP STORAGE =   0.0000000    

    CUMULATIVE OUT =   13752.982              TOTAL OUT =   38.202727    

          IN - OUT =   0.0000000               IN - OUT =   0.0000000    
     PERCENT ERROR =  0.00                PERCENT ERROR =  0.00


 
 ------------------------NODE WATER BUDGET-----------------------
  STRESS PERIOD           4  TIME STEP           6
 TOTAL SIMULATION TIME   360.000000000000     
 
 FLOW TO THE NODE IN M^3/S
 
 NODE     FIXED HEAD     RECHARGE        QWELL  MATRIX EXCH      STORAGE      TUBE_IN     TUBE_OUT         CADS     FHLQ(LQ)       CAUCHY   CAUCHY(LQ)          QLH     IN - OUT
    1    -38.203       0.0000       0.0000       0.0000       0.0000       38.203       0.0000       0.0000       0.0000       0.0000       0.0000       0.0000       0.0000    
    2     38.203       0.0000       0.0000       0.0000       0.0000       0.0000      -38.203       0.0000       0.0000       0.0000       0.0000       0.0000       0.0000    
    3     0.0000       0.0000       0.0000       0.0000       0.0000       0.0000       0.0000       0.0000       0.0000       0.0000       0.0000       0.0000       0.0000    
    4     0.0000       0.0000       0.0000       0.0000       0.0000       0.0000       0.0000       0.0000       0.0000       0.0000       0.0000       0.0000       0.0000    
     1 CALLS TO PCG ROUTINE FOR TIME STEP   6 IN STRESS PERIOD    4
     0 TOTAL ITERATIONS
 
 SOLVING FOR HEAD 
MODFLOW ITER.#  NEWTON-RAPHSON ITER.#   MAXIMUM NODE HEAD CHANGE
         1                   1                  0.0000000000
         1                   2                  0.0000000000
         1                   3                  0.0000000000
 INITIAL HNEW IS AN EXACT SOLUTION.


Solver Convergence Information:
                              HClose:  0.0
                              RClose:  0.0
                           L2-RClose:  0.0
                         Rel-Vol-Err:  0.0
 
MODFLOW ITER.#  NEWTON-RAPHSON ITER.#   MAXIMUM NODE HEAD CHANGE
         1                   1                  0.0000000000
         1                   2                  0.0000000000
         1                   3                  0.0000000000

 NO OUTPUT CONTROL FOR STRESS PERIOD      4   TIME STEP     7
 
 
 CFPM1 CRITERION OF CONVERGENCE:     0.1000000E-05
 CFPM1 MAXIMUM NUMBER OF ITERATIONS:   100
 
 
 CFPM1 RESULTS +++++++++++++++++++++++++++++++++++++++++++++++++++++++
 
 STRESS PERIOD/TIME STEP           4           7
 
NUMBER OF NEWTON RHAPSON ITERATIONS:     3
 
 ------- RESULTS OF FLOW CALCULATION -------
 
NODE#  NODE HEAD[M]   MATRIX HEAD [M] EXCHANGE [M^3/S]      CAD STORAGE    CADS RECHARGE         PFPSFLOW  DIRECT RECHARGE            QWELL             FHLQ           CAUCHY        CAUCHY LQ              QLH             QFIX
    1  10.00    FIX      10.00000         0.000000         0.000000         0.000000         0.000000         0.000000         0.000000         0.000000         0.000000         0.000000         0.000000        -38.20273    
    2  20.10    FIX      10.00000         0.000000         0.000000         0.000000         0.000000         0.000000         0.000000         0.000000         0.000000         0.000000         0.000000         38.20273    
    3  20.10000          10.00000         0.000000         0.000000         0.000000         0.000000         0.000000         0.000000         0.000000         0.000000         0.000000         0.000000         0.000000    
    4  20.10000          10.00000         0.000000         0.000000         0.000000         0.000000         0.000000         0.000000         0.000000         0.000000         0.000000         0.000000         0.000000    
 
TUBE  B  E  FLOW          Q [M^3/SEC]     DIAM.[M]        LEN.[M]        RE         RESIDENCE TIME [S]
   1   1   2   TURB.       -38.20273        1.00000       10.00000 37199750.38085        0.20559
    WARNING! TUBE    2 ACTIVE BUT NO FLOW
   2   2   3   LAMI.         0.00000        1.00000       10.00000        0.00000        0.00000
    WARNING! TUBE    3 ACTIVE BUT NO FLOW
   3   3   4   LAMI.         0.00000        1.00000       10.00000        0.00000        0.00000
 

    BUDGET OF THE PIPE SYSTEM OF TIMESTEP    7 IN STRESS PERIOD    4
------------------------------------------------------------------------

  TOTAL SIMULATION TIME   370.000000000000      S
 
        CUMULATIVE VALUES (L**3)        RATES THIS TIME STEP (L**3/T)

            IN:                               IN:
     CONSTANT HEAD =   14135.009          CONSTANT HEAD =   38.202727    
   MATRIX EXCHANGE =   0.0000000        MATRIX EXCHANGE =   0.0000000    
     PIPE RECHARGE =   0.0000000          PIPE RECHARGE =   0.0000000    
       PFP STORAGE =   0.0000000            PFP STORAGE =   0.0000000    

     CUMULATIVE IN =   14135.009               TOTAL IN =   38.202727    

           OUT:                               OUT:
     CONSTANT HEAD =   14135.009          CONSTANT HEAD =   38.202727    
   MATRIX EXCHANGE =   0.0000000        MATRIX EXCHANGE =   0.0000000    
     PIPE RECHARGE =   0.0000000          PIPE RECHARGE =   0.0000000    
       PFP STORAGE =   0.0000000            PFP STORAGE =   0.0000000    

    CUMULATIVE OUT =   14135.009              TOTAL OUT =   38.202727    

          IN - OUT =   0.0000000               IN - OUT =   0.0000000    
     PERCENT ERROR =  0.00                PERCENT ERROR =  0.00


 
 ------------------------NODE WATER BUDGET-----------------------
  STRESS PERIOD           4  TIME STEP           7
 TOTAL SIMULATION TIME   370.000000000000     
 
 FLOW TO THE NODE IN M^3/S
 
 NODE     FIXED HEAD     RECHARGE        QWELL  MATRIX EXCH      STORAGE      TUBE_IN     TUBE_OUT         CADS     FHLQ(LQ)       CAUCHY   CAUCHY(LQ)          QLH     IN - OUT
    1    -38.203       0.0000       0.0000       0.0000       0.0000       38.203       0.0000       0.0000       0.0000       0.0000       0.0000       0.0000       0.0000    
    2     38.203       0.0000       0.0000       0.0000       0.0000       0.0000      -38.203       0.0000       0.0000       0.0000       0.0000       0.0000       0.0000    
    3     0.0000       0.0000       0.0000       0.0000       0.0000       0.0000       0.0000       0.0000       0.0000       0.0000       0.0000       0.0000       0.0000    
    4     0.0000       0.0000       0.0000       0.0000       0.0000       0.0000       0.0000       0.0000       0.0000       0.0000       0.0000       0.0000       0.0000    
     1 CALLS TO PCG ROUTINE FOR TIME STEP   7 IN STRESS PERIOD    4
     0 TOTAL ITERATIONS
 
 SOLVING FOR HEAD 
MODFLOW ITER.#  NEWTON-RAPHSON ITER.#   MAXIMUM NODE HEAD CHANGE
         1                   1                  0.0000000000
         1                   2                  0.0000000000
         1                   3                  0.0000000000
 INITIAL HNEW IS AN EXACT SOLUTION.


Solver Convergence Information:
                              HClose:  0.0
                              RClose:  0.0
                           L2-RClose:  0.0
                         Rel-Vol-Err:  0.0
 
MODFLOW ITER.#  NEWTON-RAPHSON ITER.#   MAXIMUM NODE HEAD CHANGE
         1                   1                  0.0000000000
         1                   2                  0.0000000000
         1                   3                  0.0000000000

 NO OUTPUT CONTROL FOR STRESS PERIOD      4   TIME STEP     8
 
 
 CFPM1 CRITERION OF CONVERGENCE:     0.1000000E-05
 CFPM1 MAXIMUM NUMBER OF ITERATIONS:   100
 
 
 CFPM1 RESULTS +++++++++++++++++++++++++++++++++++++++++++++++++++++++
 
 STRESS PERIOD/TIME STEP           4           8
 
NUMBER OF NEWTON RHAPSON ITERATIONS:     3
 
 ------- RESULTS OF FLOW CALCULATION -------
 
NODE#  NODE HEAD[M]   MATRIX HEAD [M] EXCHANGE [M^3/S]      CAD STORAGE    CADS RECHARGE         PFPSFLOW  DIRECT RECHARGE            QWELL             FHLQ           CAUCHY        CAUCHY LQ              QLH             QFIX
    1  10.00    FIX      10.00000         0.000000         0.000000         0.000000         0.000000         0.000000         0.000000         0.000000         0.000000         0.000000         0.000000        -38.20273    
    2  20.10    FIX      10.00000         0.000000         0.000000         0.000000         0.000000         0.000000         0.000000         0.000000         0.000000         0.000000         0.000000         38.20273    
    3  20.10000          10.00000         0.000000         0.000000         0.000000         0.000000         0.000000         0.000000         0.000000         0.000000         0.000000         0.000000         0.000000    
    4  20.10000          10.00000         0.000000         0.000000         0.000000         0.000000         0.000000         0.000000         0.000000         0.000000         0.000000         0.000000         0.000000    
 
TUBE  B  E  FLOW          Q [M^3/SEC]     DIAM.[M]        LEN.[M]        RE         RESIDENCE TIME [S]
   1   1   2   TURB.       -38.20273        1.00000       10.00000 37199750.38085        0.20559
    WARNING! TUBE    2 ACTIVE BUT NO FLOW
   2   2   3   LAMI.         0.00000        1.00000       10.00000        0.00000        0.00000
    WARNING! TUBE    3 ACTIVE BUT NO FLOW
   3   3   4   LAMI.         0.00000        1.00000       10.00000        0.00000        0.00000
 

    BUDGET OF THE PIPE SYSTEM OF TIMESTEP    8 IN STRESS PERIOD    4
------------------------------------------------------------------------

  TOTAL SIMULATION TIME   380.000000000000      S
 
        CUMULATIVE VALUES (L**3)        RATES THIS TIME STEP (L**3/T)

            IN:                               IN:
     CONSTANT HEAD =   14517.036          CONSTANT HEAD =   38.202727    
   MATRIX EXCHANGE =   0.0000000        MATRIX EXCHANGE =   0.0000000    
     PIPE RECHARGE =   0.0000000          PIPE RECHARGE =   0.0000000    
       PFP STORAGE =   0.0000000            PFP STORAGE =   0.0000000    

     CUMULATIVE IN =   14517.036               TOTAL IN =   38.202727    

           OUT:                               OUT:
     CONSTANT HEAD =   14517.036          CONSTANT HEAD =   38.202727    
   MATRIX EXCHANGE =   0.0000000        MATRIX EXCHANGE =   0.0000000    
     PIPE RECHARGE =   0.0000000          PIPE RECHARGE =   0.0000000    
       PFP STORAGE =   0.0000000            PFP STORAGE =   0.0000000    

    CUMULATIVE OUT =   14517.036              TOTAL OUT =   38.202727    

          IN - OUT =   0.0000000               IN - OUT =   0.0000000    
     PERCENT ERROR =  0.00                PERCENT ERROR =  0.00


 
 ------------------------NODE WATER BUDGET-----------------------
  STRESS PERIOD           4  TIME STEP           8
 TOTAL SIMULATION TIME   380.000000000000     
 
 FLOW TO THE NODE IN M^3/S
 
 NODE     FIXED HEAD     RECHARGE        QWELL  MATRIX EXCH      STORAGE      TUBE_IN     TUBE_OUT         CADS     FHLQ(LQ)       CAUCHY   CAUCHY(LQ)          QLH     IN - OUT
    1    -38.203       0.0000       0.0000       0.0000       0.0000       38.203       0.0000       0.0000       0.0000       0.0000       0.0000       0.0000       0.0000    
    2     38.203       0.0000       0.0000       0.0000       0.0000       0.0000      -38.203       0.0000       0.0000       0.0000       0.0000       0.0000       0.0000    
    3     0.0000       0.0000       0.0000       0.0000       0.0000       0.0000       0.0000       0.0000       0.0000       0.0000       0.0000       0.0000       0.0000    
    4     0.0000       0.0000       0.0000       0.0000       0.0000       0.0000       0.0000       0.0000       0.0000       0.0000       0.0000       0.0000       0.0000    
     1 CALLS TO PCG ROUTINE FOR TIME STEP   8 IN STRESS PERIOD    4
     0 TOTAL ITERATIONS
 
 SOLVING FOR HEAD 
MODFLOW ITER.#  NEWTON-RAPHSON ITER.#   MAXIMUM NODE HEAD CHANGE
         1                   1                  0.0000000000
         1                   2                  0.0000000000
         1                   3                  0.0000000000
 INITIAL HNEW IS AN EXACT SOLUTION.


Solver Convergence Information:
                              HClose:  0.0
                              RClose:  0.0
                           L2-RClose:  0.0
                         Rel-Vol-Err:  0.0
 
MODFLOW ITER.#  NEWTON-RAPHSON ITER.#   MAXIMUM NODE HEAD CHANGE
         1                   1                  0.0000000000
         1                   2                  0.0000000000
         1                   3                  0.0000000000

 NO OUTPUT CONTROL FOR STRESS PERIOD      4   TIME STEP     9
 
 
 CFPM1 CRITERION OF CONVERGENCE:     0.1000000E-05
 CFPM1 MAXIMUM NUMBER OF ITERATIONS:   100
 
 
 CFPM1 RESULTS +++++++++++++++++++++++++++++++++++++++++++++++++++++++
 
 STRESS PERIOD/TIME STEP           4           9
 
NUMBER OF NEWTON RHAPSON ITERATIONS:     3
 
 ------- RESULTS OF FLOW CALCULATION -------
 
NODE#  NODE HEAD[M]   MATRIX HEAD [M] EXCHANGE [M^3/S]      CAD STORAGE    CADS RECHARGE         PFPSFLOW  DIRECT RECHARGE            QWELL             FHLQ           CAUCHY        CAUCHY LQ              QLH             QFIX
    1  10.00    FIX      10.00000         0.000000         0.000000         0.000000         0.000000         0.000000         0.000000         0.000000         0.000000         0.000000         0.000000        -38.20273    
    2  20.10    FIX      10.00000         0.000000         0.000000         0.000000         0.000000         0.000000         0.000000         0.000000         0.000000         0.000000         0.000000         38.20273    
    3  20.10000          10.00000         0.000000         0.000000         0.000000         0.000000         0.000000         0.000000         0.000000         0.000000         0.000000         0.000000         0.000000    
    4  20.10000          10.00000         0.000000         0.000000         0.000000         0.000000         0.000000         0.000000         0.000000         0.000000         0.000000         0.000000         0.000000    
 
TUBE  B  E  FLOW          Q [M^3/SEC]     DIAM.[M]        LEN.[M]        RE         RESIDENCE TIME [S]
   1   1   2   TURB.       -38.20273        1.00000       10.00000 37199750.38085        0.20559
    WARNING! TUBE    2 ACTIVE BUT NO FLOW
   2   2   3   LAMI.         0.00000        1.00000       10.00000        0.00000        0.00000
    WARNING! TUBE    3 ACTIVE BUT NO FLOW
   3   3   4   LAMI.         0.00000        1.00000       10.00000        0.00000        0.00000
 

    BUDGET OF THE PIPE SYSTEM OF TIMESTEP    9 IN STRESS PERIOD    4
------------------------------------------------------------------------

  TOTAL SIMULATION TIME   390.000000000000      S
 
        CUMULATIVE VALUES (L**3)        RATES THIS TIME STEP (L**3/T)

            IN:                               IN:
     CONSTANT HEAD =   14899.064          CONSTANT HEAD =   38.202727    
   MATRIX EXCHANGE =   0.0000000        MATRIX EXCHANGE =   0.0000000    
     PIPE RECHARGE =   0.0000000          PIPE RECHARGE =   0.0000000    
       PFP STORAGE =   0.0000000            PFP STORAGE =   0.0000000    

     CUMULATIVE IN =   14899.064               TOTAL IN =   38.202727    

           OUT:                               OUT:
     CONSTANT HEAD =   14899.064          CONSTANT HEAD =   38.202727    
   MATRIX EXCHANGE =   0.0000000        MATRIX EXCHANGE =   0.0000000    
     PIPE RECHARGE =   0.0000000          PIPE RECHARGE =   0.0000000    
       PFP STORAGE =   0.0000000            PFP STORAGE =   0.0000000    

    CUMULATIVE OUT =   14899.064              TOTAL OUT =   38.202727    

          IN - OUT =   0.0000000               IN - OUT =   0.0000000    
     PERCENT ERROR =  0.00                PERCENT ERROR =  0.00


 
 ------------------------NODE WATER BUDGET-----------------------
  STRESS PERIOD           4  TIME STEP           9
 TOTAL SIMULATION TIME   390.000000000000     
 
 FLOW TO THE NODE IN M^3/S
 
 NODE     FIXED HEAD     RECHARGE        QWELL  MATRIX EXCH      STORAGE      TUBE_IN     TUBE_OUT         CADS     FHLQ(LQ)       CAUCHY   CAUCHY(LQ)          QLH     IN - OUT
    1    -38.203       0.0000       0.0000       0.0000       0.0000       38.203       0.0000       0.0000       0.0000       0.0000       0.0000       0.0000       0.0000    
    2     38.203       0.0000       0.0000       0.0000       0.0000       0.0000      -38.203       0.0000       0.0000       0.0000       0.0000       0.0000       0.0000    
    3     0.0000       0.0000       0.0000       0.0000       0.0000       0.0000       0.0000       0.0000       0.0000       0.0000       0.0000       0.0000       0.0000    
    4     0.0000       0.0000       0.0000       0.0000       0.0000       0.0000       0.0000       0.0000       0.0000       0.0000       0.0000       0.0000       0.0000    
     1 CALLS TO PCG ROUTINE FOR TIME STEP   9 IN STRESS PERIOD    4
     0 TOTAL ITERATIONS
 
 SOLVING FOR HEAD 
MODFLOW ITER.#  NEWTON-RAPHSON ITER.#   MAXIMUM NODE HEAD CHANGE
         1                   1                  0.0000000000
         1                   2                  0.0000000000
         1                   3                  0.0000000000
 INITIAL HNEW IS AN EXACT SOLUTION.


Solver Convergence Information:
                              HClose:  0.0
                              RClose:  0.0
                           L2-RClose:  0.0
                         Rel-Vol-Err:  0.0
 
MODFLOW ITER.#  NEWTON-RAPHSON ITER.#   MAXIMUM NODE HEAD CHANGE
         1                   1                  0.0000000000
         1                   2                  0.0000000000
         1                   3                  0.0000000000

 OUTPUT CONTROL FOR STRESS PERIOD      4   TIME STEP    10
    PRINT HEAD FOR ALL LAYERS
    SAVE HEAD FOR ALL LAYERS
    SAVE BUDGET
 UBDSV1 SAVING "         STORAGE" ON UNIT 50 AT TIME STEP 10, STRESS PERIOD 4
 UBDSV2 SAVING "   CONSTANT HEAD" ON UNIT 50 AT TIME STEP 10, STRESS PERIOD 4
 UBDSV1 SAVING "FLOW RIGHT FACE " ON UNIT 50 AT TIME STEP 10, STRESS PERIOD 4
 UBDSV1 SAVING "FLOW FRONT FACE " ON UNIT 50 AT TIME STEP 10, STRESS PERIOD 4
 
 
 CFPM1 CRITERION OF CONVERGENCE:     0.1000000E-05
 CFPM1 MAXIMUM NUMBER OF ITERATIONS:   100
 
 
 CFPM1 RESULTS +++++++++++++++++++++++++++++++++++++++++++++++++++++++
 
 STRESS PERIOD/TIME STEP           4          10
 
NUMBER OF NEWTON RHAPSON ITERATIONS:     3
 
 ------- RESULTS OF FLOW CALCULATION -------
 
NODE#  NODE HEAD[M]   MATRIX HEAD [M] EXCHANGE [M^3/S]      CAD STORAGE    CADS RECHARGE         PFPSFLOW  DIRECT RECHARGE            QWELL             FHLQ           CAUCHY        CAUCHY LQ              QLH             QFIX
    1  10.00    FIX      10.00000         0.000000         0.000000         0.000000         0.000000         0.000000         0.000000         0.000000         0.000000         0.000000         0.000000        -38.20273    
    2  20.10    FIX      10.00000         0.000000         0.000000         0.000000         0.000000         0.000000         0.000000         0.000000         0.000000         0.000000         0.000000         38.20273    
    3  20.10000          10.00000         0.000000         0.000000         0.000000         0.000000         0.000000         0.000000         0.000000         0.000000         0.000000         0.000000         0.000000    
    4  20.10000          10.00000         0.000000         0.000000         0.000000         0.000000         0.000000         0.000000         0.000000         0.000000         0.000000         0.000000         0.000000    
 
TUBE  B  E  FLOW          Q [M^3/SEC]     DIAM.[M]        LEN.[M]        RE         RESIDENCE TIME [S]
   1   1   2   TURB.       -38.20273        1.00000       10.00000 37199750.38085        0.20559
    WARNING! TUBE    2 ACTIVE BUT NO FLOW
   2   2   3   LAMI.         0.00000        1.00000       10.00000        0.00000        0.00000
    WARNING! TUBE    3 ACTIVE BUT NO FLOW
   3   3   4   LAMI.         0.00000        1.00000       10.00000        0.00000        0.00000
 

    BUDGET OF THE PIPE SYSTEM OF TIMESTEP   10 IN STRESS PERIOD    4
------------------------------------------------------------------------

  TOTAL SIMULATION TIME   400.000000000000      S
 
        CUMULATIVE VALUES (L**3)        RATES THIS TIME STEP (L**3/T)

            IN:                               IN:
     CONSTANT HEAD =   15281.091          CONSTANT HEAD =   38.202727    
   MATRIX EXCHANGE =   0.0000000        MATRIX EXCHANGE =   0.0000000    
     PIPE RECHARGE =   0.0000000          PIPE RECHARGE =   0.0000000    
       PFP STORAGE =   0.0000000            PFP STORAGE =   0.0000000    

     CUMULATIVE IN =   15281.091               TOTAL IN =   38.202727    

           OUT:                               OUT:
     CONSTANT HEAD =   15281.091          CONSTANT HEAD =   38.202727    
   MATRIX EXCHANGE =   0.0000000        MATRIX EXCHANGE =   0.0000000    
     PIPE RECHARGE =   0.0000000          PIPE RECHARGE =   0.0000000    
       PFP STORAGE =   0.0000000            PFP STORAGE =   0.0000000    

    CUMULATIVE OUT =   15281.091              TOTAL OUT =   38.202727    

          IN - OUT =   0.0000000               IN - OUT =   0.0000000    
     PERCENT ERROR =  0.00                PERCENT ERROR =  0.00


 
 ------------------------NODE WATER BUDGET-----------------------
  STRESS PERIOD           4  TIME STEP          10
 TOTAL SIMULATION TIME   400.000000000000     
 
 FLOW TO THE NODE IN M^3/S
 
 NODE     FIXED HEAD     RECHARGE        QWELL  MATRIX EXCH      STORAGE      TUBE_IN     TUBE_OUT         CADS     FHLQ(LQ)       CAUCHY   CAUCHY(LQ)          QLH     IN - OUT
    1    -38.203       0.0000       0.0000       0.0000       0.0000       38.203       0.0000       0.0000       0.0000       0.0000       0.0000       0.0000       0.0000    
    2     38.203       0.0000       0.0000       0.0000       0.0000       0.0000      -38.203       0.0000       0.0000       0.0000       0.0000       0.0000       0.0000    
    3     0.0000       0.0000       0.0000       0.0000       0.0000       0.0000       0.0000       0.0000       0.0000       0.0000       0.0000       0.0000       0.0000    
    4     0.0000       0.0000       0.0000       0.0000       0.0000       0.0000       0.0000       0.0000       0.0000       0.0000       0.0000       0.0000       0.0000    
     1 CALLS TO PCG ROUTINE FOR TIME STEP  10 IN STRESS PERIOD    4
     0 TOTAL ITERATIONS

 MAXIMUM HEAD CHANGE FOR EACH ITERATION (1 INDICATES THE FIRST INNER ITERATION):

    HEAD CHANGE    HEAD CHANGE    HEAD CHANGE    HEAD CHANGE    HEAD CHANGE 
   LAYER,ROW,COL  LAYER,ROW,COL  LAYER,ROW,COL  LAYER,ROW,COL  LAYER,ROW,COL
 ---------------------------------------------------------------------------



 MAXIMUM RESIDUAL FOR EACH ITERATION (1 INDICATES THE FIRST INNER ITERATION):

    RESIDUAL       RESIDUAL       RESIDUAL       RESIDUAL       RESIDUAL    
   LAYER,ROW,COL  LAYER,ROW,COL  LAYER,ROW,COL  LAYER,ROW,COL  LAYER,ROW,COL
 ---------------------------------------------------------------------------




1
              HEAD IN LAYER   1 AT END OF TIME STEP  10 IN STRESS PERIOD    4
  ---------------------------------------------------------------------------

          1         2         3         4         5
 ..................................................
   1    10.       10.       10.       10.       10.    
   2    10.       10.       10.       10.       10.    
   3    10.       10.       10.       10.       10.    
   4    10.       10.       10.       10.       10.    

 HEAD WILL BE SAVED ON UNIT   51 AT END OF TIME STEP    10 IN STRESS PERIOD      4



  -------------------------------------------------------------------------------------
  VOLUMETRIC BUDGET FOR ENTIRE MODEL AT END OF TIME STEP   10 IN STRESS PERIOD      4
  -------------------------------------------------------------------------------------

     CUMULATIVE VOLUMES      L**3       RATES FOR THIS TIME STEP      L**3/T
     ------------------                 ------------------------

           IN:                                      IN:
           ---                                      ---
             STORAGE =           0.0000               STORAGE =           0.0000
       CONSTANT HEAD =           0.0000         CONSTANT HEAD =           0.0000
               PIPES =           0.0000                 PIPES =           0.0000

            TOTAL IN =           0.0000              TOTAL IN =           0.0000

          OUT:                                     OUT:
          ----                                     ----
             STORAGE =           0.0000               STORAGE =           0.0000
       CONSTANT HEAD =           0.0000         CONSTANT HEAD =           0.0000
               PIPES =           0.0000                 PIPES =           0.0000

           TOTAL OUT =           0.0000             TOTAL OUT =           0.0000

            IN - OUT =           0.0000              IN - OUT =           0.0000

 PERCENT DISCREPANCY =           0.00     PERCENT DISCREPANCY =           0.00


          TIME SUMMARY AT END OF TIME STEP    10 IN STRESS PERIOD      4
                    SECONDS     MINUTES      HOURS       DAYS        YEARS
                    -----------------------------------------------------------
   TIME STEP LENGTH  10.000     0.16667     2.77778E-03 1.15741E-04 3.16881E-07
 STRESS PERIOD TIME  100.00      1.6667     2.77778E-02 1.15741E-03 3.16881E-06
         TOTAL TIME  400.00      6.6667     0.11111     4.62963E-03 1.26752E-05
 
1
                            STRESS PERIOD NO.      5, LENGTH =   100.0000    
                            -----------------------------------------------

                              NUMBER OF TIME STEPS =    10

                               MULTIPLIER FOR DELT =     1.000

                            INITIAL TIME STEP SIZE =   10.00000    
 
 SOLVING FOR HEAD 
MODFLOW ITER.#  NEWTON-RAPHSON ITER.#   MAXIMUM NODE HEAD CHANGE
         1                   1                  0.0000000000
         1                   2                  0.0000000000
         1                   3                  0.0000000000
 INITIAL HNEW IS AN EXACT SOLUTION.


Solver Convergence Information:
                              HClose:  0.0
                              RClose:  0.0
                           L2-RClose:  0.0
                         Rel-Vol-Err:  0.0
 
MODFLOW ITER.#  NEWTON-RAPHSON ITER.#   MAXIMUM NODE HEAD CHANGE
         1                   1                  0.0000000000
         1                   2                  0.0000000000
         1                   3                  0.0000000000

 NO OUTPUT CONTROL FOR STRESS PERIOD      5   TIME STEP     1
 
 
 CFPM1 CRITERION OF CONVERGENCE:     0.1000000E-05
 CFPM1 MAXIMUM NUMBER OF ITERATIONS:   100
 
 
 CFPM1 RESULTS +++++++++++++++++++++++++++++++++++++++++++++++++++++++
 
 STRESS PERIOD/TIME STEP           5           1
 
NUMBER OF NEWTON RHAPSON ITERATIONS:     3
 
 ------- RESULTS OF FLOW CALCULATION -------
 
NODE#  NODE HEAD[M]   MATRIX HEAD [M] EXCHANGE [M^3/S]      CAD STORAGE    CADS RECHARGE         PFPSFLOW  DIRECT RECHARGE            QWELL             FHLQ           CAUCHY        CAUCHY LQ              QLH             QFIX
    1  10.00    FIX      10.00000         0.000000         0.000000         0.000000         0.000000         0.000000         0.000000         0.000000         0.000000         0.000000         0.000000        -38.20273    
    2  20.10    FIX      10.00000         0.000000         0.000000         0.000000         0.000000         0.000000         0.000000         0.000000         0.000000         0.000000         0.000000         38.20273    
    3  20.10000          10.00000         0.000000         0.000000         0.000000         0.000000         0.000000         0.000000         0.000000         0.000000         0.000000         0.000000         0.000000    
    4  20.10000          10.00000         0.000000         0.000000         0.000000         0.000000         0.000000         0.000000         0.000000         0.000000         0.000000         0.000000         0.000000    
 
TUBE  B  E  FLOW          Q [M^3/SEC]     DIAM.[M]        LEN.[M]        RE         RESIDENCE TIME [S]
   1   1   2   TURB.       -38.20273        1.00000       10.00000 37199750.38085        0.20559
    WARNING! TUBE    2 ACTIVE BUT NO FLOW
   2   2   3   LAMI.         0.00000        1.00000       10.00000        0.00000        0.00000
    WARNING! TUBE    3 ACTIVE BUT NO FLOW
   3   3   4   LAMI.         0.00000        1.00000       10.00000        0.00000        0.00000
 

    BUDGET OF THE PIPE SYSTEM OF TIMESTEP    1 IN STRESS PERIOD    5
------------------------------------------------------------------------

  TOTAL SIMULATION TIME   410.000000000000      S
 
        CUMULATIVE VALUES (L**3)        RATES THIS TIME STEP (L**3/T)

            IN:                               IN:
     CONSTANT HEAD =   15663.118          CONSTANT HEAD =   38.202727    
   MATRIX EXCHANGE =   0.0000000        MATRIX EXCHANGE =   0.0000000    
     PIPE RECHARGE =   0.0000000          PIPE RECHARGE =   0.0000000    
       PFP STORAGE =   0.0000000            PFP STORAGE =   0.0000000    

     CUMULATIVE IN =   15663.118               TOTAL IN =   38.202727    

           OUT:                               OUT:
     CONSTANT HEAD =   15663.118          CONSTANT HEAD =   38.202727    
   MATRIX EXCHANGE =   0.0000000        MATRIX EXCHANGE =   0.0000000    
     PIPE RECHARGE =   0.0000000          PIPE RECHARGE =   0.0000000    
       PFP STORAGE =   0.0000000            PFP STORAGE =   0.0000000    

    CUMULATIVE OUT =   15663.118              TOTAL OUT =   38.202727    

          IN - OUT =   0.0000000               IN - OUT =   0.0000000    
     PERCENT ERROR =  0.00                PERCENT ERROR =  0.00


 
 ------------------------NODE WATER BUDGET-----------------------
  STRESS PERIOD           5  TIME STEP           1
 TOTAL SIMULATION TIME   410.000000000000     
 
 FLOW TO THE NODE IN M^3/S
 
 NODE     FIXED HEAD     RECHARGE        QWELL  MATRIX EXCH      STORAGE      TUBE_IN     TUBE_OUT         CADS     FHLQ(LQ)       CAUCHY   CAUCHY(LQ)          QLH     IN - OUT
    1    -38.203       0.0000       0.0000       0.0000       0.0000       38.203       0.0000       0.0000       0.0000       0.0000       0.0000       0.0000       0.0000    
    2     38.203       0.0000       0.0000       0.0000       0.0000       0.0000      -38.203       0.0000       0.0000       0.0000       0.0000       0.0000       0.0000    
    3     0.0000       0.0000       0.0000       0.0000       0.0000       0.0000       0.0000       0.0000       0.0000       0.0000       0.0000       0.0000       0.0000    
    4     0.0000       0.0000       0.0000       0.0000       0.0000       0.0000       0.0000       0.0000       0.0000       0.0000       0.0000       0.0000       0.0000    


     1 CALLS TO PCG ROUTINE FOR TIME STEP   1 IN STRESS PERIOD    5
     0 TOTAL ITERATIONS
 
 SOLVING FOR HEAD 
MODFLOW ITER.#  NEWTON-RAPHSON ITER.#   MAXIMUM NODE HEAD CHANGE
         1                   1                  0.0000000000
         1                   2                  0.0000000000
         1                   3                  0.0000000000
 INITIAL HNEW IS AN EXACT SOLUTION.


Solver Convergence Information:
                              HClose:  0.0
                              RClose:  0.0
                           L2-RClose:  0.0
                         Rel-Vol-Err:  0.0
 
MODFLOW ITER.#  NEWTON-RAPHSON ITER.#   MAXIMUM NODE HEAD CHANGE
         1                   1                  0.0000000000
         1                   2                  0.0000000000
         1                   3                  0.0000000000

 NO OUTPUT CONTROL FOR STRESS PERIOD      5   TIME STEP     2
 
 
 CFPM1 CRITERION OF CONVERGENCE:     0.1000000E-05
 CFPM1 MAXIMUM NUMBER OF ITERATIONS:   100
 
 
 CFPM1 RESULTS +++++++++++++++++++++++++++++++++++++++++++++++++++++++
 
 STRESS PERIOD/TIME STEP           5           2
 
NUMBER OF NEWTON RHAPSON ITERATIONS:     3
 
 ------- RESULTS OF FLOW CALCULATION -------
 
NODE#  NODE HEAD[M]   MATRIX HEAD [M] EXCHANGE [M^3/S]      CAD STORAGE    CADS RECHARGE         PFPSFLOW  DIRECT RECHARGE            QWELL             FHLQ           CAUCHY        CAUCHY LQ              QLH             QFIX
    1  10.00    FIX      10.00000         0.000000         0.000000         0.000000         0.000000         0.000000         0.000000         0.000000         0.000000         0.000000         0.000000        -38.20273    
    2  20.10    FIX      10.00000         0.000000         0.000000         0.000000         0.000000         0.000000         0.000000         0.000000         0.000000         0.000000         0.000000         38.20273    
    3  20.10000          10.00000         0.000000         0.000000         0.000000         0.000000         0.000000         0.000000         0.000000         0.000000         0.000000         0.000000         0.000000    
    4  20.10000          10.00000         0.000000         0.000000         0.000000         0.000000         0.000000         0.000000         0.000000         0.000000         0.000000         0.000000         0.000000    
 
TUBE  B  E  FLOW          Q [M^3/SEC]     DIAM.[M]        LEN.[M]        RE         RESIDENCE TIME [S]
   1   1   2   TURB.       -38.20273        1.00000       10.00000 37199750.38085        0.20559
    WARNING! TUBE    2 ACTIVE BUT NO FLOW
   2   2   3   LAMI.         0.00000        1.00000       10.00000        0.00000        0.00000
    WARNING! TUBE    3 ACTIVE BUT NO FLOW
   3   3   4   LAMI.         0.00000        1.00000       10.00000        0.00000        0.00000
 

    BUDGET OF THE PIPE SYSTEM OF TIMESTEP    2 IN STRESS PERIOD    5
------------------------------------------------------------------------

  TOTAL SIMULATION TIME   420.000000000000      S
 
        CUMULATIVE VALUES (L**3)        RATES THIS TIME STEP (L**3/T)

            IN:                               IN:
     CONSTANT HEAD =   16045.145          CONSTANT HEAD =   38.202727    
   MATRIX EXCHANGE =   0.0000000        MATRIX EXCHANGE =   0.0000000    
     PIPE RECHARGE =   0.0000000          PIPE RECHARGE =   0.0000000    
       PFP STORAGE =   0.0000000            PFP STORAGE =   0.0000000    

     CUMULATIVE IN =   16045.145               TOTAL IN =   38.202727    

           OUT:                               OUT:
     CONSTANT HEAD =   16045.145          CONSTANT HEAD =   38.202727    
   MATRIX EXCHANGE =   0.0000000        MATRIX EXCHANGE =   0.0000000    
     PIPE RECHARGE =   0.0000000          PIPE RECHARGE =   0.0000000    
       PFP STORAGE =   0.0000000            PFP STORAGE =   0.0000000    

    CUMULATIVE OUT =   16045.145              TOTAL OUT =   38.202727    

          IN - OUT =   0.0000000               IN - OUT =   0.0000000    
     PERCENT ERROR =  0.00                PERCENT ERROR =  0.00


 
 ------------------------NODE WATER BUDGET-----------------------
  STRESS PERIOD           5  TIME STEP           2
 TOTAL SIMULATION TIME   420.000000000000     
 
 FLOW TO THE NODE IN M^3/S
 
 NODE     FIXED HEAD     RECHARGE        QWELL  MATRIX EXCH      STORAGE      TUBE_IN     TUBE_OUT         CADS     FHLQ(LQ)       CAUCHY   CAUCHY(LQ)          QLH     IN - OUT
    1    -38.203       0.0000       0.0000       0.0000       0.0000       38.203       0.0000       0.0000       0.0000       0.0000       0.0000       0.0000       0.0000    
    2     38.203       0.0000       0.0000       0.0000       0.0000       0.0000      -38.203       0.0000       0.0000       0.0000       0.0000       0.0000       0.0000    
    3     0.0000       0.0000       0.0000       0.0000       0.0000       0.0000       0.0000       0.0000       0.0000       0.0000       0.0000       0.0000       0.0000    
    4     0.0000       0.0000       0.0000       0.0000       0.0000       0.0000       0.0000       0.0000       0.0000       0.0000       0.0000       0.0000       0.0000    
     1 CALLS TO PCG ROUTINE FOR TIME STEP   2 IN STRESS PERIOD    5
     0 TOTAL ITERATIONS
 
 SOLVING FOR HEAD 
MODFLOW ITER.#  NEWTON-RAPHSON ITER.#   MAXIMUM NODE HEAD CHANGE
         1                   1                  0.0000000000
         1                   2                  0.0000000000
         1                   3                  0.0000000000
 INITIAL HNEW IS AN EXACT SOLUTION.


Solver Convergence Information:
                              HClose:  0.0
                              RClose:  0.0
                           L2-RClose:  0.0
                         Rel-Vol-Err:  0.0
 
MODFLOW ITER.#  NEWTON-RAPHSON ITER.#   MAXIMUM NODE HEAD CHANGE
         1                   1                  0.0000000000
         1                   2                  0.0000000000
         1                   3                  0.0000000000

 NO OUTPUT CONTROL FOR STRESS PERIOD      5   TIME STEP     3
 
 
 CFPM1 CRITERION OF CONVERGENCE:     0.1000000E-05
 CFPM1 MAXIMUM NUMBER OF ITERATIONS:   100
 
 
 CFPM1 RESULTS +++++++++++++++++++++++++++++++++++++++++++++++++++++++
 
 STRESS PERIOD/TIME STEP           5           3
 
NUMBER OF NEWTON RHAPSON ITERATIONS:     3
 
 ------- RESULTS OF FLOW CALCULATION -------
 
NODE#  NODE HEAD[M]   MATRIX HEAD [M] EXCHANGE [M^3/S]      CAD STORAGE    CADS RECHARGE         PFPSFLOW  DIRECT RECHARGE            QWELL             FHLQ           CAUCHY        CAUCHY LQ              QLH             QFIX
    1  10.00    FIX      10.00000         0.000000         0.000000         0.000000         0.000000         0.000000         0.000000         0.000000         0.000000         0.000000         0.000000        -38.20273    
    2  20.10    FIX      10.00000         0.000000         0.000000         0.000000         0.000000         0.000000         0.000000         0.000000         0.000000         0.000000         0.000000         38.20273    
    3  20.10000          10.00000         0.000000         0.000000         0.000000         0.000000         0.000000         0.000000         0.000000         0.000000         0.000000         0.000000         0.000000    
    4  20.10000          10.00000         0.000000         0.000000         0.000000         0.000000         0.000000         0.000000         0.000000         0.000000         0.000000         0.000000         0.000000    
 
TUBE  B  E  FLOW          Q [M^3/SEC]     DIAM.[M]        LEN.[M]        RE         RESIDENCE TIME [S]
   1   1   2   TURB.       -38.20273        1.00000       10.00000 37199750.38085        0.20559
    WARNING! TUBE    2 ACTIVE BUT NO FLOW
   2   2   3   LAMI.         0.00000        1.00000       10.00000        0.00000        0.00000
    WARNING! TUBE    3 ACTIVE BUT NO FLOW
   3   3   4   LAMI.         0.00000        1.00000       10.00000        0.00000        0.00000
 

    BUDGET OF THE PIPE SYSTEM OF TIMESTEP    3 IN STRESS PERIOD    5
------------------------------------------------------------------------

  TOTAL SIMULATION TIME   430.000000000000      S
 
        CUMULATIVE VALUES (L**3)        RATES THIS TIME STEP (L**3/T)

            IN:                               IN:
     CONSTANT HEAD =   16427.173          CONSTANT HEAD =   38.202727    
   MATRIX EXCHANGE =   0.0000000        MATRIX EXCHANGE =   0.0000000    
     PIPE RECHARGE =   0.0000000          PIPE RECHARGE =   0.0000000    
       PFP STORAGE =   0.0000000            PFP STORAGE =   0.0000000    

     CUMULATIVE IN =   16427.173               TOTAL IN =   38.202727    

           OUT:                               OUT:
     CONSTANT HEAD =   16427.173          CONSTANT HEAD =   38.202727    
   MATRIX EXCHANGE =   0.0000000        MATRIX EXCHANGE =   0.0000000    
     PIPE RECHARGE =   0.0000000          PIPE RECHARGE =   0.0000000    
       PFP STORAGE =   0.0000000            PFP STORAGE =   0.0000000    

    CUMULATIVE OUT =   16427.173              TOTAL OUT =   38.202727    

          IN - OUT =   0.0000000               IN - OUT =   0.0000000    
     PERCENT ERROR =  0.00                PERCENT ERROR =  0.00


 
 ------------------------NODE WATER BUDGET-----------------------
  STRESS PERIOD           5  TIME STEP           3
 TOTAL SIMULATION TIME   430.000000000000     
 
 FLOW TO THE NODE IN M^3/S
 
 NODE     FIXED HEAD     RECHARGE        QWELL  MATRIX EXCH      STORAGE      TUBE_IN     TUBE_OUT         CADS     FHLQ(LQ)       CAUCHY   CAUCHY(LQ)          QLH     IN - OUT
    1    -38.203       0.0000       0.0000       0.0000       0.0000       38.203       0.0000       0.0000       0.0000       0.0000       0.0000       0.0000       0.0000    
    2     38.203       0.0000       0.0000       0.0000       0.0000       0.0000      -38.203       0.0000       0.0000       0.0000       0.0000       0.0000       0.0000    
    3     0.0000       0.0000       0.0000       0.0000       0.0000       0.0000       0.0000       0.0000       0.0000       0.0000       0.0000       0.0000       0.0000    
    4     0.0000       0.0000       0.0000       0.0000       0.0000       0.0000       0.0000       0.0000       0.0000       0.0000       0.0000       0.0000       0.0000    
     1 CALLS TO PCG ROUTINE FOR TIME STEP   3 IN STRESS PERIOD    5
     0 TOTAL ITERATIONS
 
 SOLVING FOR HEAD 
MODFLOW ITER.#  NEWTON-RAPHSON ITER.#   MAXIMUM NODE HEAD CHANGE
         1                   1                  0.0000000000
         1                   2                  0.0000000000
         1                   3                  0.0000000000
 INITIAL HNEW IS AN EXACT SOLUTION.


Solver Convergence Information:
                              HClose:  0.0
                              RClose:  0.0
                           L2-RClose:  0.0
                         Rel-Vol-Err:  0.0
 
MODFLOW ITER.#  NEWTON-RAPHSON ITER.#   MAXIMUM NODE HEAD CHANGE
         1                   1                  0.0000000000
         1                   2                  0.0000000000
         1                   3                  0.0000000000

 NO OUTPUT CONTROL FOR STRESS PERIOD      5   TIME STEP     4
 
 
 CFPM1 CRITERION OF CONVERGENCE:     0.1000000E-05
 CFPM1 MAXIMUM NUMBER OF ITERATIONS:   100
 
 
 CFPM1 RESULTS +++++++++++++++++++++++++++++++++++++++++++++++++++++++
 
 STRESS PERIOD/TIME STEP           5           4
 
NUMBER OF NEWTON RHAPSON ITERATIONS:     3
 
 ------- RESULTS OF FLOW CALCULATION -------
 
NODE#  NODE HEAD[M]   MATRIX HEAD [M] EXCHANGE [M^3/S]      CAD STORAGE    CADS RECHARGE         PFPSFLOW  DIRECT RECHARGE            QWELL             FHLQ           CAUCHY        CAUCHY LQ              QLH             QFIX
    1  10.00    FIX      10.00000         0.000000         0.000000         0.000000         0.000000         0.000000         0.000000         0.000000         0.000000         0.000000         0.000000        -38.20273    
    2  20.10    FIX      10.00000         0.000000         0.000000         0.000000         0.000000         0.000000         0.000000         0.000000         0.000000         0.000000         0.000000         38.20273    
    3  20.10000          10.00000         0.000000         0.000000         0.000000         0.000000         0.000000         0.000000         0.000000         0.000000         0.000000         0.000000         0.000000    
    4  20.10000          10.00000         0.000000         0.000000         0.000000         0.000000         0.000000         0.000000         0.000000         0.000000         0.000000         0.000000         0.000000    
 
TUBE  B  E  FLOW          Q [M^3/SEC]     DIAM.[M]        LEN.[M]        RE         RESIDENCE TIME [S]
   1   1   2   TURB.       -38.20273        1.00000       10.00000 37199750.38085        0.20559
    WARNING! TUBE    2 ACTIVE BUT NO FLOW
   2   2   3   LAMI.         0.00000        1.00000       10.00000        0.00000        0.00000
    WARNING! TUBE    3 ACTIVE BUT NO FLOW
   3   3   4   LAMI.         0.00000        1.00000       10.00000        0.00000        0.00000
 

    BUDGET OF THE PIPE SYSTEM OF TIMESTEP    4 IN STRESS PERIOD    5
------------------------------------------------------------------------

  TOTAL SIMULATION TIME   440.000000000000      S
 
        CUMULATIVE VALUES (L**3)        RATES THIS TIME STEP (L**3/T)

            IN:                               IN:
     CONSTANT HEAD =   16809.200          CONSTANT HEAD =   38.202727    
   MATRIX EXCHANGE =   0.0000000        MATRIX EXCHANGE =   0.0000000    
     PIPE RECHARGE =   0.0000000          PIPE RECHARGE =   0.0000000    
       PFP STORAGE =   0.0000000            PFP STORAGE =   0.0000000    

     CUMULATIVE IN =   16809.200               TOTAL IN =   38.202727    

           OUT:                               OUT:
     CONSTANT HEAD =   16809.200          CONSTANT HEAD =   38.202727    
   MATRIX EXCHANGE =   0.0000000        MATRIX EXCHANGE =   0.0000000    
     PIPE RECHARGE =   0.0000000          PIPE RECHARGE =   0.0000000    
       PFP STORAGE =   0.0000000            PFP STORAGE =   0.0000000    

    CUMULATIVE OUT =   16809.200              TOTAL OUT =   38.202727    

          IN - OUT =   0.0000000               IN - OUT =   0.0000000    
     PERCENT ERROR =  0.00                PERCENT ERROR =  0.00


 
 ------------------------NODE WATER BUDGET-----------------------
  STRESS PERIOD           5  TIME STEP           4
 TOTAL SIMULATION TIME   440.000000000000     
 
 FLOW TO THE NODE IN M^3/S
 
 NODE     FIXED HEAD     RECHARGE        QWELL  MATRIX EXCH      STORAGE      TUBE_IN     TUBE_OUT         CADS     FHLQ(LQ)       CAUCHY   CAUCHY(LQ)          QLH     IN - OUT
    1    -38.203       0.0000       0.0000       0.0000       0.0000       38.203       0.0000       0.0000       0.0000       0.0000       0.0000       0.0000       0.0000    
    2     38.203       0.0000       0.0000       0.0000       0.0000       0.0000      -38.203       0.0000       0.0000       0.0000       0.0000       0.0000       0.0000    
    3     0.0000       0.0000       0.0000       0.0000       0.0000       0.0000       0.0000       0.0000       0.0000       0.0000       0.0000       0.0000       0.0000    
    4     0.0000       0.0000       0.0000       0.0000       0.0000       0.0000       0.0000       0.0000       0.0000       0.0000       0.0000       0.0000       0.0000    
     1 CALLS TO PCG ROUTINE FOR TIME STEP   4 IN STRESS PERIOD    5
     0 TOTAL ITERATIONS
 
 SOLVING FOR HEAD 
MODFLOW ITER.#  NEWTON-RAPHSON ITER.#   MAXIMUM NODE HEAD CHANGE
         1                   1                  0.0000000000
         1                   2                  0.0000000000
         1                   3                  0.0000000000
 INITIAL HNEW IS AN EXACT SOLUTION.


Solver Convergence Information:
                              HClose:  0.0
                              RClose:  0.0
                           L2-RClose:  0.0
                         Rel-Vol-Err:  0.0
 
MODFLOW ITER.#  NEWTON-RAPHSON ITER.#   MAXIMUM NODE HEAD CHANGE
         1                   1                  0.0000000000
         1                   2                  0.0000000000
         1                   3                  0.0000000000

 NO OUTPUT CONTROL FOR STRESS PERIOD      5   TIME STEP     5
 
 
 CFPM1 CRITERION OF CONVERGENCE:     0.1000000E-05
 CFPM1 MAXIMUM NUMBER OF ITERATIONS:   100
 
 
 CFPM1 RESULTS +++++++++++++++++++++++++++++++++++++++++++++++++++++++
 
 STRESS PERIOD/TIME STEP           5           5
 
NUMBER OF NEWTON RHAPSON ITERATIONS:     3
 
 ------- RESULTS OF FLOW CALCULATION -------
 
NODE#  NODE HEAD[M]   MATRIX HEAD [M] EXCHANGE [M^3/S]      CAD STORAGE    CADS RECHARGE         PFPSFLOW  DIRECT RECHARGE            QWELL             FHLQ           CAUCHY        CAUCHY LQ              QLH             QFIX
    1  10.00    FIX      10.00000         0.000000         0.000000         0.000000         0.000000         0.000000         0.000000         0.000000         0.000000         0.000000         0.000000        -38.20273    
    2  20.10    FIX      10.00000         0.000000         0.000000         0.000000         0.000000         0.000000         0.000000         0.000000         0.000000         0.000000         0.000000         38.20273    
    3  20.10000          10.00000         0.000000         0.000000         0.000000         0.000000         0.000000         0.000000         0.000000         0.000000         0.000000         0.000000         0.000000    
    4  20.10000          10.00000         0.000000         0.000000         0.000000         0.000000         0.000000         0.000000         0.000000         0.000000         0.000000         0.000000         0.000000    
 
TUBE  B  E  FLOW          Q [M^3/SEC]     DIAM.[M]        LEN.[M]        RE         RESIDENCE TIME [S]
   1   1   2   TURB.       -38.20273        1.00000       10.00000 37199750.38085        0.20559
    WARNING! TUBE    2 ACTIVE BUT NO FLOW
   2   2   3   LAMI.         0.00000        1.00000       10.00000        0.00000        0.00000
    WARNING! TUBE    3 ACTIVE BUT NO FLOW
   3   3   4   LAMI.         0.00000        1.00000       10.00000        0.00000        0.00000
 

    BUDGET OF THE PIPE SYSTEM OF TIMESTEP    5 IN STRESS PERIOD    5
------------------------------------------------------------------------

  TOTAL SIMULATION TIME   450.000000000000      S
 
        CUMULATIVE VALUES (L**3)        RATES THIS TIME STEP (L**3/T)

            IN:                               IN:
     CONSTANT HEAD =   17191.227          CONSTANT HEAD =   38.202727    
   MATRIX EXCHANGE =   0.0000000        MATRIX EXCHANGE =   0.0000000    
     PIPE RECHARGE =   0.0000000          PIPE RECHARGE =   0.0000000    
       PFP STORAGE =   0.0000000            PFP STORAGE =   0.0000000    

     CUMULATIVE IN =   17191.227               TOTAL IN =   38.202727    

           OUT:                               OUT:
     CONSTANT HEAD =   17191.227          CONSTANT HEAD =   38.202727    
   MATRIX EXCHANGE =   0.0000000        MATRIX EXCHANGE =   0.0000000    
     PIPE RECHARGE =   0.0000000          PIPE RECHARGE =   0.0000000    
       PFP STORAGE =   0.0000000            PFP STORAGE =   0.0000000    

    CUMULATIVE OUT =   17191.227              TOTAL OUT =   38.202727    

          IN - OUT =   0.0000000               IN - OUT =   0.0000000    
     PERCENT ERROR =  0.00                PERCENT ERROR =  0.00


 
 ------------------------NODE WATER BUDGET-----------------------
  STRESS PERIOD           5  TIME STEP           5
 TOTAL SIMULATION TIME   450.000000000000     
 
 FLOW TO THE NODE IN M^3/S
 
 NODE     FIXED HEAD     RECHARGE        QWELL  MATRIX EXCH      STORAGE      TUBE_IN     TUBE_OUT         CADS     FHLQ(LQ)       CAUCHY   CAUCHY(LQ)          QLH     IN - OUT
    1    -38.203       0.0000       0.0000       0.0000       0.0000       38.203       0.0000       0.0000       0.0000       0.0000       0.0000       0.0000       0.0000    
    2     38.203       0.0000       0.0000       0.0000       0.0000       0.0000      -38.203       0.0000       0.0000       0.0000       0.0000       0.0000       0.0000    
    3     0.0000       0.0000       0.0000       0.0000       0.0000       0.0000       0.0000       0.0000       0.0000       0.0000       0.0000       0.0000       0.0000    
    4     0.0000       0.0000       0.0000       0.0000       0.0000       0.0000       0.0000       0.0000       0.0000       0.0000       0.0000       0.0000       0.0000    
     1 CALLS TO PCG ROUTINE FOR TIME STEP   5 IN STRESS PERIOD    5
     0 TOTAL ITERATIONS

 MAXIMUM HEAD CHANGE FOR EACH ITERATION (1 INDICATES THE FIRST INNER ITERATION):

    HEAD CHANGE    HEAD CHANGE    HEAD CHANGE    HEAD CHANGE    HEAD CHANGE 
   LAYER,ROW,COL  LAYER,ROW,COL  LAYER,ROW,COL  LAYER,ROW,COL  LAYER,ROW,COL
 ---------------------------------------------------------------------------



 MAXIMUM RESIDUAL FOR EACH ITERATION (1 INDICATES THE FIRST INNER ITERATION):

    RESIDUAL       RESIDUAL       RESIDUAL       RESIDUAL       RESIDUAL    
   LAYER,ROW,COL  LAYER,ROW,COL  LAYER,ROW,COL  LAYER,ROW,COL  LAYER,ROW,COL
 ---------------------------------------------------------------------------




 
 SOLVING FOR HEAD 
MODFLOW ITER.#  NEWTON-RAPHSON ITER.#   MAXIMUM NODE HEAD CHANGE
         1                   1                  0.0000000000
         1                   2                  0.0000000000
         1                   3                  0.0000000000
 INITIAL HNEW IS AN EXACT SOLUTION.


Solver Convergence Information:
                              HClose:  0.0
                              RClose:  0.0
                           L2-RClose:  0.0
                         Rel-Vol-Err:  0.0
 
MODFLOW ITER.#  NEWTON-RAPHSON ITER.#   MAXIMUM NODE HEAD CHANGE
         1                   1                  0.0000000000
         1                   2                  0.0000000000
         1                   3                  0.0000000000

 NO OUTPUT CONTROL FOR STRESS PERIOD      5   TIME STEP     6
 
 
 CFPM1 CRITERION OF CONVERGENCE:     0.1000000E-05
 CFPM1 MAXIMUM NUMBER OF ITERATIONS:   100
 
 
 CFPM1 RESULTS +++++++++++++++++++++++++++++++++++++++++++++++++++++++
 
 STRESS PERIOD/TIME STEP           5           6
 
NUMBER OF NEWTON RHAPSON ITERATIONS:     3
 
 ------- RESULTS OF FLOW CALCULATION -------
 
NODE#  NODE HEAD[M]   MATRIX HEAD [M] EXCHANGE [M^3/S]      CAD STORAGE    CADS RECHARGE         PFPSFLOW  DIRECT RECHARGE            QWELL             FHLQ           CAUCHY        CAUCHY LQ              QLH             QFIX
    1  10.00    FIX      10.00000         0.000000         0.000000         0.000000         0.000000         0.000000         0.000000         0.000000         0.000000         0.000000         0.000000        -38.20273    
    2  20.10    FIX      10.00000         0.000000         0.000000         0.000000         0.000000         0.000000         0.000000         0.000000         0.000000         0.000000         0.000000         38.20273    
    3  20.10000          10.00000         0.000000         0.000000         0.000000         0.000000         0.000000         0.000000         0.000000         0.000000         0.000000         0.000000         0.000000    
    4  20.10000          10.00000         0.000000         0.000000         0.000000         0.000000         0.000000         0.000000         0.000000         0.000000         0.000000         0.000000         0.000000    
 
TUBE  B  E  FLOW          Q [M^3/SEC]     DIAM.[M]        LEN.[M]        RE         RESIDENCE TIME [S]
   1   1   2   TURB.       -38.20273        1.00000       10.00000 37199750.38085        0.20559
    WARNING! TUBE    2 ACTIVE BUT NO FLOW
   2   2   3   LAMI.         0.00000        1.00000       10.00000        0.00000        0.00000
    WARNING! TUBE    3 ACTIVE BUT NO FLOW
   3   3   4   LAMI.         0.00000        1.00000       10.00000        0.00000        0.00000
 

    BUDGET OF THE PIPE SYSTEM OF TIMESTEP    6 IN STRESS PERIOD    5
------------------------------------------------------------------------

  TOTAL SIMULATION TIME   460.000000000000      S
 
        CUMULATIVE VALUES (L**3)        RATES THIS TIME STEP (L**3/T)

            IN:                               IN:
     CONSTANT HEAD =   17573.254          CONSTANT HEAD =   38.202727    
   MATRIX EXCHANGE =   0.0000000        MATRIX EXCHANGE =   0.0000000    
     PIPE RECHARGE =   0.0000000          PIPE RECHARGE =   0.0000000    
       PFP STORAGE =   0.0000000            PFP STORAGE =   0.0000000    

     CUMULATIVE IN =   17573.254               TOTAL IN =   38.202727    

           OUT:                               OUT:
     CONSTANT HEAD =   17573.254          CONSTANT HEAD =   38.202727    
   MATRIX EXCHANGE =   0.0000000        MATRIX EXCHANGE =   0.0000000    
     PIPE RECHARGE =   0.0000000          PIPE RECHARGE =   0.0000000    
       PFP STORAGE =   0.0000000            PFP STORAGE =   0.0000000    

    CUMULATIVE OUT =   17573.254              TOTAL OUT =   38.202727    

          IN - OUT =   0.0000000               IN - OUT =   0.0000000    
     PERCENT ERROR =  0.00                PERCENT ERROR =  0.00


 
 ------------------------NODE WATER BUDGET-----------------------
  STRESS PERIOD           5  TIME STEP           6
 TOTAL SIMULATION TIME   460.000000000000     
 
 FLOW TO THE NODE IN M^3/S
 
 NODE     FIXED HEAD     RECHARGE        QWELL  MATRIX EXCH      STORAGE      TUBE_IN     TUBE_OUT         CADS     FHLQ(LQ)       CAUCHY   CAUCHY(LQ)          QLH     IN - OUT
    1    -38.203       0.0000       0.0000       0.0000       0.0000       38.203       0.0000       0.0000       0.0000       0.0000       0.0000       0.0000       0.0000    
    2     38.203       0.0000       0.0000       0.0000       0.0000       0.0000      -38.203       0.0000       0.0000       0.0000       0.0000       0.0000       0.0000    
    3     0.0000       0.0000       0.0000       0.0000       0.0000       0.0000       0.0000       0.0000       0.0000       0.0000       0.0000       0.0000       0.0000    
    4     0.0000       0.0000       0.0000       0.0000       0.0000       0.0000       0.0000       0.0000       0.0000       0.0000       0.0000       0.0000       0.0000    
     1 CALLS TO PCG ROUTINE FOR TIME STEP   6 IN STRESS PERIOD    5
     0 TOTAL ITERATIONS
 
 SOLVING FOR HEAD 
MODFLOW ITER.#  NEWTON-RAPHSON ITER.#   MAXIMUM NODE HEAD CHANGE
         1                   1                  0.0000000000
         1                   2                  0.0000000000
         1                   3                  0.0000000000
 INITIAL HNEW IS AN EXACT SOLUTION.


Solver Convergence Information:
                              HClose:  0.0
                              RClose:  0.0
                           L2-RClose:  0.0
                         Rel-Vol-Err:  0.0
 
MODFLOW ITER.#  NEWTON-RAPHSON ITER.#   MAXIMUM NODE HEAD CHANGE
         1                   1                  0.0000000000
         1                   2                  0.0000000000
         1                   3                  0.0000000000

 NO OUTPUT CONTROL FOR STRESS PERIOD      5   TIME STEP     7
 
 
 CFPM1 CRITERION OF CONVERGENCE:     0.1000000E-05
 CFPM1 MAXIMUM NUMBER OF ITERATIONS:   100
 
 
 CFPM1 RESULTS +++++++++++++++++++++++++++++++++++++++++++++++++++++++
 
 STRESS PERIOD/TIME STEP           5           7
 
NUMBER OF NEWTON RHAPSON ITERATIONS:     3
 
 ------- RESULTS OF FLOW CALCULATION -------
 
NODE#  NODE HEAD[M]   MATRIX HEAD [M] EXCHANGE [M^3/S]      CAD STORAGE    CADS RECHARGE         PFPSFLOW  DIRECT RECHARGE            QWELL             FHLQ           CAUCHY        CAUCHY LQ              QLH             QFIX
    1  10.00    FIX      10.00000         0.000000         0.000000         0.000000         0.000000         0.000000         0.000000         0.000000         0.000000         0.000000         0.000000        -38.20273    
    2  20.10    FIX      10.00000         0.000000         0.000000         0.000000         0.000000         0.000000         0.000000         0.000000         0.000000         0.000000         0.000000         38.20273    
    3  20.10000          10.00000         0.000000         0.000000         0.000000         0.000000         0.000000         0.000000         0.000000         0.000000         0.000000         0.000000         0.000000    
    4  20.10000          10.00000         0.000000         0.000000         0.000000         0.000000         0.000000         0.000000         0.000000         0.000000         0.000000         0.000000         0.000000    
 
TUBE  B  E  FLOW          Q [M^3/SEC]     DIAM.[M]        LEN.[M]        RE         RESIDENCE TIME [S]
   1   1   2   TURB.       -38.20273        1.00000       10.00000 37199750.38085        0.20559
    WARNING! TUBE    2 ACTIVE BUT NO FLOW
   2   2   3   LAMI.         0.00000        1.00000       10.00000        0.00000        0.00000
    WARNING! TUBE    3 ACTIVE BUT NO FLOW
   3   3   4   LAMI.         0.00000        1.00000       10.00000        0.00000        0.00000
 

    BUDGET OF THE PIPE SYSTEM OF TIMESTEP    7 IN STRESS PERIOD    5
------------------------------------------------------------------------

  TOTAL SIMULATION TIME   470.000000000000      S
 
        CUMULATIVE VALUES (L**3)        RATES THIS TIME STEP (L**3/T)

            IN:                               IN:
     CONSTANT HEAD =   17955.282          CONSTANT HEAD =   38.202727    
   MATRIX EXCHANGE =   0.0000000        MATRIX EXCHANGE =   0.0000000    
     PIPE RECHARGE =   0.0000000          PIPE RECHARGE =   0.0000000    
       PFP STORAGE =   0.0000000            PFP STORAGE =   0.0000000    

     CUMULATIVE IN =   17955.282               TOTAL IN =   38.202727    

           OUT:                               OUT:
     CONSTANT HEAD =   17955.282          CONSTANT HEAD =   38.202727    
   MATRIX EXCHANGE =   0.0000000        MATRIX EXCHANGE =   0.0000000    
     PIPE RECHARGE =   0.0000000          PIPE RECHARGE =   0.0000000    
       PFP STORAGE =   0.0000000            PFP STORAGE =   0.0000000    

    CUMULATIVE OUT =   17955.282              TOTAL OUT =   38.202727    

          IN - OUT =   0.0000000               IN - OUT =   0.0000000    
     PERCENT ERROR =  0.00                PERCENT ERROR =  0.00


 
 ------------------------NODE WATER BUDGET-----------------------
  STRESS PERIOD           5  TIME STEP           7
 TOTAL SIMULATION TIME   470.000000000000     
 
 FLOW TO THE NODE IN M^3/S
 
 NODE     FIXED HEAD     RECHARGE        QWELL  MATRIX EXCH      STORAGE      TUBE_IN     TUBE_OUT         CADS     FHLQ(LQ)       CAUCHY   CAUCHY(LQ)          QLH     IN - OUT
    1    -38.203       0.0000       0.0000       0.0000       0.0000       38.203       0.0000       0.0000       0.0000       0.0000       0.0000       0.0000       0.0000    
    2     38.203       0.0000       0.0000       0.0000       0.0000       0.0000      -38.203       0.0000       0.0000       0.0000       0.0000       0.0000       0.0000    
    3     0.0000       0.0000       0.0000       0.0000       0.0000       0.0000       0.0000       0.0000       0.0000       0.0000       0.0000       0.0000       0.0000    
    4     0.0000       0.0000       0.0000       0.0000       0.0000       0.0000       0.0000       0.0000       0.0000       0.0000       0.0000       0.0000       0.0000    
     1 CALLS TO PCG ROUTINE FOR TIME STEP   7 IN STRESS PERIOD    5
     0 TOTAL ITERATIONS
 
 SOLVING FOR HEAD 
MODFLOW ITER.#  NEWTON-RAPHSON ITER.#   MAXIMUM NODE HEAD CHANGE
         1                   1                  0.0000000000
         1                   2                  0.0000000000
         1                   3                  0.0000000000
 INITIAL HNEW IS AN EXACT SOLUTION.


Solver Convergence Information:
                              HClose:  0.0
                              RClose:  0.0
                           L2-RClose:  0.0
                         Rel-Vol-Err:  0.0
 
MODFLOW ITER.#  NEWTON-RAPHSON ITER.#   MAXIMUM NODE HEAD CHANGE
         1                   1                  0.0000000000
         1                   2                  0.0000000000
         1                   3                  0.0000000000

 NO OUTPUT CONTROL FOR STRESS PERIOD      5   TIME STEP     8
 
 
 CFPM1 CRITERION OF CONVERGENCE:     0.1000000E-05
 CFPM1 MAXIMUM NUMBER OF ITERATIONS:   100
 
 
 CFPM1 RESULTS +++++++++++++++++++++++++++++++++++++++++++++++++++++++
 
 STRESS PERIOD/TIME STEP           5           8
 
NUMBER OF NEWTON RHAPSON ITERATIONS:     3
 
 ------- RESULTS OF FLOW CALCULATION -------
 
NODE#  NODE HEAD[M]   MATRIX HEAD [M] EXCHANGE [M^3/S]      CAD STORAGE    CADS RECHARGE         PFPSFLOW  DIRECT RECHARGE            QWELL             FHLQ           CAUCHY        CAUCHY LQ              QLH             QFIX
    1  10.00    FIX      10.00000         0.000000         0.000000         0.000000         0.000000         0.000000         0.000000         0.000000         0.000000         0.000000         0.000000        -38.20273    
    2  20.10    FIX      10.00000         0.000000         0.000000         0.000000         0.000000         0.000000         0.000000         0.000000         0.000000         0.000000         0.000000         38.20273    
    3  20.10000          10.00000         0.000000         0.000000         0.000000         0.000000         0.000000         0.000000         0.000000         0.000000         0.000000         0.000000         0.000000    
    4  20.10000          10.00000         0.000000         0.000000         0.000000         0.000000         0.000000         0.000000         0.000000         0.000000         0.000000         0.000000         0.000000    
 
TUBE  B  E  FLOW          Q [M^3/SEC]     DIAM.[M]        LEN.[M]        RE         RESIDENCE TIME [S]
   1   1   2   TURB.       -38.20273        1.00000       10.00000 37199750.38085        0.20559
    WARNING! TUBE    2 ACTIVE BUT NO FLOW
   2   2   3   LAMI.         0.00000        1.00000       10.00000        0.00000        0.00000
    WARNING! TUBE    3 ACTIVE BUT NO FLOW
   3   3   4   LAMI.         0.00000        1.00000       10.00000        0.00000        0.00000
 

    BUDGET OF THE PIPE SYSTEM OF TIMESTEP    8 IN STRESS PERIOD    5
------------------------------------------------------------------------

  TOTAL SIMULATION TIME   480.000000000000      S
 
        CUMULATIVE VALUES (L**3)        RATES THIS TIME STEP (L**3/T)

            IN:                               IN:
     CONSTANT HEAD =   18337.309          CONSTANT HEAD =   38.202727    
   MATRIX EXCHANGE =   0.0000000        MATRIX EXCHANGE =   0.0000000    
     PIPE RECHARGE =   0.0000000          PIPE RECHARGE =   0.0000000    
       PFP STORAGE =   0.0000000            PFP STORAGE =   0.0000000    

     CUMULATIVE IN =   18337.309               TOTAL IN =   38.202727    

           OUT:                               OUT:
     CONSTANT HEAD =   18337.309          CONSTANT HEAD =   38.202727    
   MATRIX EXCHANGE =   0.0000000        MATRIX EXCHANGE =   0.0000000    
     PIPE RECHARGE =   0.0000000          PIPE RECHARGE =   0.0000000    
       PFP STORAGE =   0.0000000            PFP STORAGE =   0.0000000    

    CUMULATIVE OUT =   18337.309              TOTAL OUT =   38.202727    

          IN - OUT =   0.0000000               IN - OUT =   0.0000000    
     PERCENT ERROR =  0.00                PERCENT ERROR =  0.00


 
 ------------------------NODE WATER BUDGET-----------------------
  STRESS PERIOD           5  TIME STEP           8
 TOTAL SIMULATION TIME   480.000000000000     
 
 FLOW TO THE NODE IN M^3/S
 
 NODE     FIXED HEAD     RECHARGE        QWELL  MATRIX EXCH      STORAGE      TUBE_IN     TUBE_OUT         CADS     FHLQ(LQ)       CAUCHY   CAUCHY(LQ)          QLH     IN - OUT
    1    -38.203       0.0000       0.0000       0.0000       0.0000       38.203       0.0000       0.0000       0.0000       0.0000       0.0000       0.0000       0.0000    
    2     38.203       0.0000       0.0000       0.0000       0.0000       0.0000      -38.203       0.0000       0.0000       0.0000       0.0000       0.0000       0.0000    
    3     0.0000       0.0000       0.0000       0.0000       0.0000       0.0000       0.0000       0.0000       0.0000       0.0000       0.0000       0.0000       0.0000    
    4     0.0000       0.0000       0.0000       0.0000       0.0000       0.0000       0.0000       0.0000       0.0000       0.0000       0.0000       0.0000       0.0000    
     1 CALLS TO PCG ROUTINE FOR TIME STEP   8 IN STRESS PERIOD    5
     0 TOTAL ITERATIONS
 
 SOLVING FOR HEAD 
MODFLOW ITER.#  NEWTON-RAPHSON ITER.#   MAXIMUM NODE HEAD CHANGE
         1                   1                  0.0000000000
         1                   2                  0.0000000000
         1                   3                  0.0000000000
 INITIAL HNEW IS AN EXACT SOLUTION.


Solver Convergence Information:
                              HClose:  0.0
                              RClose:  0.0
                           L2-RClose:  0.0
                         Rel-Vol-Err:  0.0
 
MODFLOW ITER.#  NEWTON-RAPHSON ITER.#   MAXIMUM NODE HEAD CHANGE
         1                   1                  0.0000000000
         1                   2                  0.0000000000
         1                   3                  0.0000000000

 NO OUTPUT CONTROL FOR STRESS PERIOD      5   TIME STEP     9
 
 
 CFPM1 CRITERION OF CONVERGENCE:     0.1000000E-05
 CFPM1 MAXIMUM NUMBER OF ITERATIONS:   100
 
 
 CFPM1 RESULTS +++++++++++++++++++++++++++++++++++++++++++++++++++++++
 
 STRESS PERIOD/TIME STEP           5           9
 
NUMBER OF NEWTON RHAPSON ITERATIONS:     3
 
 ------- RESULTS OF FLOW CALCULATION -------
 
NODE#  NODE HEAD[M]   MATRIX HEAD [M] EXCHANGE [M^3/S]      CAD STORAGE    CADS RECHARGE         PFPSFLOW  DIRECT RECHARGE            QWELL             FHLQ           CAUCHY        CAUCHY LQ              QLH             QFIX
    1  10.00    FIX      10.00000         0.000000         0.000000         0.000000         0.000000         0.000000         0.000000         0.000000         0.000000         0.000000         0.000000        -38.20273    
    2  20.10    FIX      10.00000         0.000000         0.000000         0.000000         0.000000         0.000000         0.000000         0.000000         0.000000         0.000000         0.000000         38.20273    
    3  20.10000          10.00000         0.000000         0.000000         0.000000         0.000000         0.000000         0.000000         0.000000         0.000000         0.000000         0.000000         0.000000    
    4  20.10000          10.00000         0.000000         0.000000         0.000000         0.000000         0.000000         0.000000         0.000000         0.000000         0.000000         0.000000         0.000000    
 
TUBE  B  E  FLOW          Q [M^3/SEC]     DIAM.[M]        LEN.[M]        RE         RESIDENCE TIME [S]
   1   1   2   TURB.       -38.20273        1.00000       10.00000 37199750.38085        0.20559
    WARNING! TUBE    2 ACTIVE BUT NO FLOW
   2   2   3   LAMI.         0.00000        1.00000       10.00000        0.00000        0.00000
    WARNING! TUBE    3 ACTIVE BUT NO FLOW
   3   3   4   LAMI.         0.00000        1.00000       10.00000        0.00000        0.00000
 

    BUDGET OF THE PIPE SYSTEM OF TIMESTEP    9 IN STRESS PERIOD    5
------------------------------------------------------------------------

  TOTAL SIMULATION TIME   490.000000000000      S
 
        CUMULATIVE VALUES (L**3)        RATES THIS TIME STEP (L**3/T)

            IN:                               IN:
     CONSTANT HEAD =   18719.336          CONSTANT HEAD =   38.202727    
   MATRIX EXCHANGE =   0.0000000        MATRIX EXCHANGE =   0.0000000    
     PIPE RECHARGE =   0.0000000          PIPE RECHARGE =   0.0000000    
       PFP STORAGE =   0.0000000            PFP STORAGE =   0.0000000    

     CUMULATIVE IN =   18719.336               TOTAL IN =   38.202727    

           OUT:                               OUT:
     CONSTANT HEAD =   18719.336          CONSTANT HEAD =   38.202727    
   MATRIX EXCHANGE =   0.0000000        MATRIX EXCHANGE =   0.0000000    
     PIPE RECHARGE =   0.0000000          PIPE RECHARGE =   0.0000000    
       PFP STORAGE =   0.0000000            PFP STORAGE =   0.0000000    

    CUMULATIVE OUT =   18719.336              TOTAL OUT =   38.202727    

          IN - OUT =   0.0000000               IN - OUT =   0.0000000    
     PERCENT ERROR =  0.00                PERCENT ERROR =  0.00


 
 ------------------------NODE WATER BUDGET-----------------------
  STRESS PERIOD           5  TIME STEP           9
 TOTAL SIMULATION TIME   490.000000000000     
 
 FLOW TO THE NODE IN M^3/S
 
 NODE     FIXED HEAD     RECHARGE        QWELL  MATRIX EXCH      STORAGE      TUBE_IN     TUBE_OUT         CADS     FHLQ(LQ)       CAUCHY   CAUCHY(LQ)          QLH     IN - OUT
    1    -38.203       0.0000       0.0000       0.0000       0.0000       38.203       0.0000       0.0000       0.0000       0.0000       0.0000       0.0000       0.0000    
    2     38.203       0.0000       0.0000       0.0000       0.0000       0.0000      -38.203       0.0000       0.0000       0.0000       0.0000       0.0000       0.0000    
    3     0.0000       0.0000       0.0000       0.0000       0.0000       0.0000       0.0000       0.0000       0.0000       0.0000       0.0000       0.0000       0.0000    
    4     0.0000       0.0000       0.0000       0.0000       0.0000       0.0000       0.0000       0.0000       0.0000       0.0000       0.0000       0.0000       0.0000    
     1 CALLS TO PCG ROUTINE FOR TIME STEP   9 IN STRESS PERIOD    5
     0 TOTAL ITERATIONS
 
 SOLVING FOR HEAD 
MODFLOW ITER.#  NEWTON-RAPHSON ITER.#   MAXIMUM NODE HEAD CHANGE
         1                   1                  0.0000000000
         1                   2                  0.0000000000
         1                   3                  0.0000000000
 INITIAL HNEW IS AN EXACT SOLUTION.


Solver Convergence Information:
                              HClose:  0.0
                              RClose:  0.0
                           L2-RClose:  0.0
                         Rel-Vol-Err:  0.0
 
MODFLOW ITER.#  NEWTON-RAPHSON ITER.#   MAXIMUM NODE HEAD CHANGE
         1                   1                  0.0000000000
         1                   2                  0.0000000000
         1                   3                  0.0000000000

 OUTPUT CONTROL FOR STRESS PERIOD      5   TIME STEP    10
    PRINT HEAD FOR ALL LAYERS
    SAVE HEAD FOR ALL LAYERS
    SAVE BUDGET
 UBDSV1 SAVING "         STORAGE" ON UNIT 50 AT TIME STEP 10, STRESS PERIOD 5
 UBDSV2 SAVING "   CONSTANT HEAD" ON UNIT 50 AT TIME STEP 10, STRESS PERIOD 5
 UBDSV1 SAVING "FLOW RIGHT FACE " ON UNIT 50 AT TIME STEP 10, STRESS PERIOD 5
 UBDSV1 SAVING "FLOW FRONT FACE " ON UNIT 50 AT TIME STEP 10, STRESS PERIOD 5
 
 
 CFPM1 CRITERION OF CONVERGENCE:     0.1000000E-05
 CFPM1 MAXIMUM NUMBER OF ITERATIONS:   100
 
 
 CFPM1 RESULTS +++++++++++++++++++++++++++++++++++++++++++++++++++++++
 
 STRESS PERIOD/TIME STEP           5          10
 
NUMBER OF NEWTON RHAPSON ITERATIONS:     3
 
 ------- RESULTS OF FLOW CALCULATION -------
 
NODE#  NODE HEAD[M]   MATRIX HEAD [M] EXCHANGE [M^3/S]      CAD STORAGE    CADS RECHARGE         PFPSFLOW  DIRECT RECHARGE            QWELL             FHLQ           CAUCHY        CAUCHY LQ              QLH             QFIX
    1  10.00    FIX      10.00000         0.000000         0.000000         0.000000         0.000000         0.000000         0.000000         0.000000         0.000000         0.000000         0.000000        -38.20273    
    2  20.10    FIX      10.00000         0.000000         0.000000         0.000000         0.000000         0.000000         0.000000         0.000000         0.000000         0.000000         0.000000         38.20273    
    3  20.10000          10.00000         0.000000         0.000000         0.000000         0.000000         0.000000         0.000000         0.000000         0.000000         0.000000         0.000000         0.000000    
    4  20.10000          10.00000         0.000000         0.000000         0.000000         0.000000         0.000000         0.000000         0.000000         0.000000         0.000000         0.000000         0.000000    
 
TUBE  B  E  FLOW          Q [M^3/SEC]     DIAM.[M]        LEN.[M]        RE         RESIDENCE TIME [S]
   1   1   2   TURB.       -38.20273        1.00000       10.00000 37199750.38085        0.20559
    WARNING! TUBE    2 ACTIVE BUT NO FLOW
   2   2   3   LAMI.         0.00000        1.00000       10.00000        0.00000        0.00000
    WARNING! TUBE    3 ACTIVE BUT NO FLOW
   3   3   4   LAMI.         0.00000        1.00000       10.00000        0.00000        0.00000
 

    BUDGET OF THE PIPE SYSTEM OF TIMESTEP   10 IN STRESS PERIOD    5
------------------------------------------------------------------------

  TOTAL SIMULATION TIME   500.000000000000      S
 
        CUMULATIVE VALUES (L**3)        RATES THIS TIME STEP (L**3/T)

            IN:                               IN:
     CONSTANT HEAD =   19101.364          CONSTANT HEAD =   38.202727    
   MATRIX EXCHANGE =   0.0000000        MATRIX EXCHANGE =   0.0000000    
     PIPE RECHARGE =   0.0000000          PIPE RECHARGE =   0.0000000    
       PFP STORAGE =   0.0000000            PFP STORAGE =   0.0000000    

     CUMULATIVE IN =   19101.364               TOTAL IN =   38.202727    

           OUT:                               OUT:
     CONSTANT HEAD =   19101.364          CONSTANT HEAD =   38.202727    
   MATRIX EXCHANGE =   0.0000000        MATRIX EXCHANGE =   0.0000000    
     PIPE RECHARGE =   0.0000000          PIPE RECHARGE =   0.0000000    
       PFP STORAGE =   0.0000000            PFP STORAGE =   0.0000000    

    CUMULATIVE OUT =   19101.364              TOTAL OUT =   38.202727    

          IN - OUT =   0.0000000               IN - OUT =   0.0000000    
     PERCENT ERROR =  0.00                PERCENT ERROR =  0.00


 
 ------------------------NODE WATER BUDGET-----------------------
  STRESS PERIOD           5  TIME STEP          10
 TOTAL SIMULATION TIME   500.000000000000     
 
 FLOW TO THE NODE IN M^3/S
 
 NODE     FIXED HEAD     RECHARGE        QWELL  MATRIX EXCH      STORAGE      TUBE_IN     TUBE_OUT         CADS     FHLQ(LQ)       CAUCHY   CAUCHY(LQ)          QLH     IN - OUT
    1    -38.203       0.0000       0.0000       0.0000       0.0000       38.203       0.0000       0.0000       0.0000       0.0000       0.0000       0.0000       0.0000    
    2     38.203       0.0000       0.0000       0.0000       0.0000       0.0000      -38.203       0.0000       0.0000       0.0000       0.0000       0.0000       0.0000    
    3     0.0000       0.0000       0.0000       0.0000       0.0000       0.0000       0.0000       0.0000       0.0000       0.0000       0.0000       0.0000       0.0000    
    4     0.0000       0.0000       0.0000       0.0000       0.0000       0.0000       0.0000       0.0000       0.0000       0.0000       0.0000       0.0000       0.0000    
     1 CALLS TO PCG ROUTINE FOR TIME STEP  10 IN STRESS PERIOD    5
     0 TOTAL ITERATIONS

 MAXIMUM HEAD CHANGE FOR EACH ITERATION (1 INDICATES THE FIRST INNER ITERATION):

    HEAD CHANGE    HEAD CHANGE    HEAD CHANGE    HEAD CHANGE    HEAD CHANGE 
   LAYER,ROW,COL  LAYER,ROW,COL  LAYER,ROW,COL  LAYER,ROW,COL  LAYER,ROW,COL
 ---------------------------------------------------------------------------



 MAXIMUM RESIDUAL FOR EACH ITERATION (1 INDICATES THE FIRST INNER ITERATION):

    RESIDUAL       RESIDUAL       RESIDUAL       RESIDUAL       RESIDUAL    
   LAYER,ROW,COL  LAYER,ROW,COL  LAYER,ROW,COL  LAYER,ROW,COL  LAYER,ROW,COL
 ---------------------------------------------------------------------------




1
              HEAD IN LAYER   1 AT END OF TIME STEP  10 IN STRESS PERIOD    5
  ---------------------------------------------------------------------------

          1         2         3         4         5
 ..................................................
   1    10.       10.       10.       10.       10.    
   2    10.       10.       10.       10.       10.    
   3    10.       10.       10.       10.       10.    
   4    10.       10.       10.       10.       10.    

 HEAD WILL BE SAVED ON UNIT   51 AT END OF TIME STEP    10 IN STRESS PERIOD      5



  -------------------------------------------------------------------------------------
  VOLUMETRIC BUDGET FOR ENTIRE MODEL AT END OF TIME STEP   10 IN STRESS PERIOD      5
  -------------------------------------------------------------------------------------

     CUMULATIVE VOLUMES      L**3       RATES FOR THIS TIME STEP      L**3/T
     ------------------                 ------------------------

           IN:                                      IN:
           ---                                      ---
             STORAGE =           0.0000               STORAGE =           0.0000
       CONSTANT HEAD =           0.0000         CONSTANT HEAD =           0.0000
               PIPES =           0.0000                 PIPES =           0.0000

            TOTAL IN =           0.0000              TOTAL IN =           0.0000

          OUT:                                     OUT:
          ----                                     ----
             STORAGE =           0.0000               STORAGE =           0.0000
       CONSTANT HEAD =           0.0000         CONSTANT HEAD =           0.0000
               PIPES =           0.0000                 PIPES =           0.0000

           TOTAL OUT =           0.0000             TOTAL OUT =           0.0000

            IN - OUT =           0.0000              IN - OUT =           0.0000

 PERCENT DISCREPANCY =           0.00     PERCENT DISCREPANCY =           0.00


          TIME SUMMARY AT END OF TIME STEP    10 IN STRESS PERIOD      5
                    SECONDS     MINUTES      HOURS       DAYS        YEARS
                    -----------------------------------------------------------
   TIME STEP LENGTH  10.000     0.16667     2.77778E-03 1.15741E-04 3.16881E-07
 STRESS PERIOD TIME  100.00      1.6667     2.77778E-02 1.15741E-03 3.16881E-06
         TOTAL TIME  500.00      8.3333     0.13889     5.78704E-03 1.58440E-05
 

 Final Remark:

   The solver successfully met the user supplied convergence criteria, HCLOSE and RCLOSE, for all 50 time steps.

   Please check the "VOLUMETRIC BUDGET FOR ENTIRE MODEL" to ensure that mass rate balance errors are acceptable for all time steps.

   The cumulative mass error for the entire simulation is 0.00 %




 Simulation finished at  


 Which had an elapsed run time of: 0.0 seconds


    OneWater Simulation Now Complete


