ðŸ’§ðŸ§™ðŸ’¦ðŸŒŠ  <-These symbols help text editors identify file as Unicode UTF8.
                    UTF8 is not necessary to view numerical results, but no UTF8 support can have artifacts where non-ascii symbols are used (such as the degree symbol).


MODFLOW-OWHM v2.3.0

      MMMMMMM                                       MM      MMM     MM
    MMM     MMM    MM      M   MMMMMMMM             LM     DM M     ML     MM     MMMMMMMMM  MMMMMMMM  MMMMMMMM
   MM         MM   MMM     M   MM                    MM    MM M     M     MMMM        M      M         MM     NM
   MM         MM   MM M    M   MM                    MM    M  MM   MM    MM  MM       M      M         MM      M
   MM         MM   MM  M   M   MMMMMMMM               MN  MM   M   MM   MM    MM      M      MMMMMMM   MMMMMMMMM
   MM         MM   MM   M  M   MM         MMMMMMM     MM  M    MM MM    MMMMMMMM      M      M         MM   MM
   MM         MM   MM    M M   MM                     LM MM    NM MM   MM      MM     M      M         MM    MM
    MM       NM    MM     MM   MM                      M M      M M   MN        MM    M      M         MM     MM
     MMMMMMMMN     MM      M   MMMMMMMM                7MM      7MM  MN          MM   M      MMMMMMMM  MM      MM


                        MODFLOW
            ONE-WATER HYDROLOGIC-FLOW MODEL

    U.S. Geological Survey Modular Finite-Difference
           Conjunctive Use Simulation Program

                      Version 2.3

 Release: 0

 Includes the following base versions with enhancements:

          MODFLOW-2005 Version 1.12
          MODFLOW-FMP  Version 4.1
          MODFLOW-SWR  Version 1.04
          MODFLOW-SWI  Version 2.0
          MODFLOW-LGR  Version 2.0
          MODFLOW-NWT  Version 1.3
          MODFLOW-CFP  Version 1.09.57
                  SWO  Version 1.0

------------------------------------------------------------------------------------
USGS Software Disclaimer:                                                          |
                                                                                   |
   No warranty, expressed or implied, is made by the USGS or the U.S. Government   |
   as to the functionality of the software and related material nor shall the      |
   fact of release constitute any such warranty.                                   |
                                                                                   |
   The software is provided on the condition that neither the USGS nor             |
   the U.S. Government shall be held liable for any damages resulting from the     |
   authorized or unauthorized use of the software.                                 |
                                                                                   |
   Newer versions may be present at the official code and download repository:     |
      https://code.usgs.gov/modflow/mf-owhm                                        |
                                                                                   |
------------------------------------------------------------------------------------

âˆ™âˆ™âˆ™âˆ™âˆ™âˆ™âˆ™âˆ™âˆ™âˆ™âˆ™âˆ™âˆ™âˆ™âˆ™âˆ™âˆ™âˆ™âˆ™âˆ™âˆ™âˆ™âˆ™âˆ™âˆ™âˆ™âˆ™âˆ™âˆ™âˆ™âˆ™âˆ™âˆ™âˆ™âˆ™âˆ™âˆ™âˆ™âˆ™âˆ™âˆ™âˆ™âˆ™âˆ™âˆ™âˆ™âˆ™âˆ™âˆ™âˆ™âˆ™âˆ™âˆ™âˆ™âˆ™âˆ™âˆ™âˆ™âˆ™âˆ™âˆ™âˆ™
    OneWater Simulation Initiated at  
âˆ™âˆ™âˆ™âˆ™âˆ™âˆ™âˆ™âˆ™âˆ™âˆ™âˆ™âˆ™âˆ™âˆ™âˆ™âˆ™âˆ™âˆ™âˆ™âˆ™âˆ™âˆ™âˆ™âˆ™âˆ™âˆ™âˆ™âˆ™âˆ™âˆ™âˆ™âˆ™âˆ™âˆ™âˆ™âˆ™âˆ™âˆ™âˆ™âˆ™âˆ™âˆ™âˆ™âˆ™âˆ™âˆ™âˆ™âˆ™âˆ™âˆ™âˆ™âˆ™âˆ™âˆ™âˆ™âˆ™âˆ™âˆ™âˆ™âˆ™âˆ™âˆ™


 LIST FILE: ./output/cfp_mode1_example.lst
      UNIT: 7

OPENING DATA FILES [DATA AND DATA(BINARY)]

OPENED DATA FILE ON UNIT     50 WITH FILENAME OF: ./output/cfp_mode1_example.cbc
OPENED DATA FILE ON UNIT     51 WITH FILENAME OF: ./output/cfp_mode1_example.hds

OPENING PACKAGES

BAS6 PACKAGE OPENED.
DIS  PACKAGE OPENED.
LPF  PACKAGE OPENED.
RCH  PACKAGE OPENED.
CRCH PACKAGE OPENED.
PCG  PACKAGE OPENED.
CFP  PACKAGE OPENED.
OC   PACKAGE OPENED.
COC  PACKAGE OPENED.

NOTIFICATION: A FILE UNIT NUMBER WAS FOUND FOR EITHER THE LIST FILE OR A PACAKGE.
IT WILL BE USED EVEN THOUGH UNIT NUMBERS FOR THE LIST FILE AND PACKAGES ARE NOW OPTIONAL.
[IT IS RECOMMENDED TO STILL USE A UNIT NUMBER FOR DATA and DATA(BINARY) ]


 BAS -- BASIC PACKAGE, VERSION OWHM INPUT READ FROM UNIT     1
 
MODFLOW was compiled using uniform precision (Precision => Number of meaningful digits in numbers)
Precision of REAL and DOUBLE PRECISION variables: 15

 DISCRETIZATION INPUT DATA READ FROM UNIT    2

*** DIS COORDINATE SYSTEM NOT SEPECIFIED ***
DEFAULT VALUES APPLIED ARE 0Â° ROTATION
WITH THE ORIGIN (0,0) LOCATED AT THE MODEL'S LOWER LEFT CORNER




DIS COORDINATE SYSTEM SEPECIFIED WITH:
GRID ROTATION OF 0.0Â°
WITH THE ORIGIN LOCATED AT THE OUTER MOST CORNER OF MODEL CELL [4,1] WITH:
X-COORDINATE:0.0
Y-COORDINATE:0.0
    3 LAYERS         4 ROWS         4 COLUMNS
      5 STRESS PERIOD(S) IN SIMULATION
 MODEL TIME UNIT IS DAYS
 MODEL LENGTH UNIT IS METERS
  Confining bed flag for each layer:
   0   0   0

                     DELR =   10.0000    

                     DELC =   10.0000    

 TOP ELEVATION OF LAYER 1 =   5.00000    

   MODEL LAYER BOTTOM EL. =   4.00000     FOR LAYER   1

   MODEL LAYER BOTTOM EL. =   3.00000     FOR LAYER   2

   MODEL LAYER BOTTOM EL. =   2.00000     FOR LAYER   3


 STRESS PERIOD     LENGTH       TIME STEPS     MULTIPLIER FOR DELT    SS FLAG  (OPTIONAL TIME STEP LENGTH)
 ---------------------------------------------------------------------------------------------------
        1         100.0000          1                  1.00000         SS
        2         100.0000         10                  1.00000         TR
        3         100.0000         10                  1.00000         TR
        4         100.0000         10                  1.00000         TR
        5         100.0000         10                  1.00000         TR

 COMBINED STEADY-STATE AND TRANSIENT SIMULATION




-- READING BAS PACKAGE INPUT --

#3 layer, 4 rows, 5 columns; transient
#const heads col 1  example for CFPM1


 THE BAS PACKAGE NOW DEFAULTS TO FREE FORMAT.
 USE OPTION "NOFREE" TO DISABLE FREE FORMAT.

 NOW READING BAS OPTIONS

 Found Option: COMPACT

 Found Option: NO_SHOWPROGRESS

 Found Option: BUDGETDB

 Found Option: PRINT_HEAD
                 NPER       ./output/Head_NPER.txt

 Found Option: CUMULATIVE_HEAD_CHANGE
                 Cumulative sum of absolute head differences for the entire model.
                 This is a diagnostic feature meant for comparing MF-OWHM code versions with the same model input (software unit test).


 Setting up PRINT_HEAD option for 
    SP    TS   FILE
     5    10   ./output/Head_NPER.txt

 The total simulation limit for the number PARAMETERs defined is: 
     Max number of PARAMETERs (MXPAR)  is       2000
     Max number of INSTANCEs  (MXINST) is      50000
     Max number of CLUSTERs   (MXCLST) is    2000000




                     BOUNDARY ARRAY FOR LAYER   1
 READING ON UNIT    1 WITH FORMAT: (4I3)               

      1 2 3 4
 ............
   1  * 1 1 *
   2  * 1 1 *
   3  * 1 1 *
   4  * 1 1 *



                     BOUNDARY ARRAY FOR LAYER   2
 READING ON UNIT    1 WITH FORMAT: (4I3)               

      1 2 3 4
 ............
   1  * 1 1 *
   2  * 1 1 *
   3  * 1 1 *
   4  * 1 1 *



                     BOUNDARY ARRAY FOR LAYER   3
 READING ON UNIT    1 WITH FORMAT: (4I3)               

      1 2 3 4
 ............
   1  * 1 1 *
   2  * 1 1 *
   3  * 1 1 *
   4  * 1 1 *

 AQUIFER HEAD WILL BE SET TO -999.00000 AT ALL NO-FLOW NODES (IBOUND=0).




                       INITIAL HEAD FOR LAYER   1
 READING ON UNIT    1 WITH FORMAT: (4f8.4)         1   

            1           2           3           4
 ................................................
   1    20.00       20.01       20.02       20.30    
   2    20.00       20.01       20.02       20.30    
   3    20.00       20.01       20.02       20.30    
   4    20.00       20.01       20.02       20.30    



                       INITIAL HEAD FOR LAYER   2
 READING ON UNIT    1 WITH FORMAT: (4G8.4)        1    

            1           2           3           4
 ................................................
   1    20.00       20.01       20.02       20.30    
   2    20.00       20.01       20.02       20.30    
   3    20.00       20.01       20.02       20.30    
   4    20.00       20.01       20.02       20.30    



                       INITIAL HEAD FOR LAYER   3
 READING ON UNIT    1 WITH FORMAT: (4G8.4)        1    

            1           2           3           4
 ................................................
   1    20.00       20.01       20.02       20.30    
   2    20.00       20.01       20.02       20.30    
   3    20.00       20.01       20.02       20.30    
   4    20.00       20.01       20.02       20.30    

 OUTPUT CONTROL IS SPECIFIED ONLY AT TIME STEPS FOR WHICH OUTPUT IS DESIRED
 HEAD PRINT FORMAT CODE IS   0    DRAWDOWN PRINT FORMAT CODE IS   0
 HEADS WILL BE SAVED ON UNIT   51    DRAWDOWNS WILL BE SAVED ON UNIT    0  WATER BUDGETs WILL BE SAVED ON UNIT 

 LPF -- LAYER-PROPERTY FLOW PACKAGE, VERSION OWHM
         INPUT READ FROM UNIT   11
 CELL-BY-CELL FLOWS WILL BE SAVED ON UNIT   50
 HEAD AT CELLS THAT CONVERT TO DRY=  9.99000E+02
 No named parameters

   LAYER FLAGS:
 LAYER       LAYTYP        LAYAVG         CHANI        LAYVKA        LAYWET
 ---------------------------------------------------------------------------
    1             1             0     1.000E+00             0             0
    2             1             0     1.000E+00             0             0
    3             1             0     1.000E+00             0             0

   INTERPRETATION OF LAYER FLAGS:
                        INTERBLOCK     HORIZONTAL    DATA IN
         LAYER TYPE   TRANSMISSIVITY   ANISOTROPY   ARRAY VKA   WETTABILITY
 LAYER      (LAYTYP)      (LAYAVG)       (CHANI)      (LAYVKA)      (LAYWET)
 ---------------------------------------------------------------------------
    1   CONVERTIBLE      HARMONIC     1.000E+00    VERTICAL K     NEVER-DRY
    2   CONVERTIBLE      HARMONIC     1.000E+00    VERTICAL K     NEVER-DRY
    3   CONVERTIBLE      HARMONIC     1.000E+00    VERTICAL K     NEVER-DRY

 WETTING CAPABILITY IS NOT ACTIVE IN ANY LAYER

    HYD. COND. ALONG ROWS =   1000.00     FOR LAYER   1

      VERTICAL HYD. COND. =   200.000     FOR LAYER   1

         SPECIFIC STORAGE =  2.000000E-05 FOR LAYER   1

           SPECIFIC YIELD =  0.200000     FOR LAYER   1

    HYD. COND. ALONG ROWS =   1000.00     FOR LAYER   2

      VERTICAL HYD. COND. =   200.000     FOR LAYER   2

         SPECIFIC STORAGE =  2.000000E-05 FOR LAYER   2

           SPECIFIC YIELD =  0.200000     FOR LAYER   2

    HYD. COND. ALONG ROWS =   1000.00     FOR LAYER   3

      VERTICAL HYD. COND. =   200.000     FOR LAYER   3

         SPECIFIC STORAGE =  2.000000E-05 FOR LAYER   3

           SPECIFIC YIELD =  0.200000     FOR LAYER   3

 RCH -- RECHARGE PACKAGE, VERSION OWHM INPUT READ FROM UNIT   13
 No named parameters
 OPTION 1 -- RECHARGE TO LAYER 1
 CELL-BY-CELL FLOWS WILL BE SAVED ON UNIT   50


     0 Recharge parameters

 PCG -- CONJUGATE-GRADIENT SOLUTION PACKAGE, VERSION OWHM
 MAXIMUM OF     20 CALLS OF SOLUTION ROUTINE
 MAXIMUM OF     10 INTERNAL ITERATIONS PER CALL TO SOLUTION ROUTINE
 MATRIX PRECONDITIONING TYPE :    1
 IHCOFADD option -- When an active cell is surrounded by dry cells, convert
 the cell to dry only if storage and head-dependent boundary flow are 0.



                                    SOLUTION BY THE CONJUGATE-GRADIENT METHOD
                                   -------------------------------------------
                    MAXIMUM NUMBER OF CALLS TO PCG ROUTINE =       20
                        MAXIMUM ITERATIONS PER CALL TO PCG =       10
                               MATRIX PRECONDITIONING TYPE =        1
        RELAXATION FACTOR (ONLY USED WITH PRECOND. TYPE 1) =    0.97000E+00
 PARAMETER OF POLYNOMIAL PRECOND. = 2 (2) OR IS CALCULATED :        2
                         HEAD CHANGE CRITERION FOR CLOSURE =    0.10000E-04
                     RESIDUAL CHANGE CRITERION FOR CLOSURE =    0.10000E-04
            PCG HEAD AND RESIDUAL CHANGE PRINTOUT INTERVAL =        5
     PRINTING FROM SOLVER IS LIMITED(1) OR SUPPRESSED (>1) =        0
                            STEADY-STATE DAMPING PARAMETER =    0.10000E+01
                               TRANSIENT DAMPING PARAMETER =    0.10000E+01
 
 CFP1AR READING FROM UNIT          16
 CFP NOW REQUIRES COMMENT LINES TO BE PRECEDED BY A #

 PROCESSING CFP OPTION BLOCK
      OUT_DIRECTORY option found
          CFP node*.out and tube*.out will be placed in: "./output/"
 ---------------------------------
 CFP MODE 1 IS ACTIVE (PIPES) 
 ---------------------------------

#data for mode 1 conduit pipe system
#number of nodes / tubes / layers

    NUMBER OF NODES IS     5
    NUMBER OF TUBES IS     4
    NUMBER OF LAYERS IS    3
 GRAVITATIONAL CONSTANT (G) COMPUTED 

#temperature

 WATER TEMPERATURE, IN DEGREES CELCIUS, IS    25.0000000000000     
  KINEMATIC VISCOSITY [L^2/T]=  7.716459760582384E-002

#No  mc mr ml Nb1  Nb2  Nb3  Nb4 Nb5  Nb6 tb1 tb2 tb3 tb4 tb5 tb6

 
  NBR-ARRAY
    NO_N,  MC,  MR,  ML, NB1, NB2, NB3, NB4, NB5, NB6, PB1, PB2, PB3, PB4, PB5, PB6
         1      2     2     1      3     0     0     0     0     0      1     0     0     0     0     0
         2      1     3     1      3     0     0     0     0     0      2     0     0     0     0     0
         3      2     3     1      1     2     4     0     0     0      1     2     3     0     0     0
         4      3     3     1      3     5     0     0     0     0      3     4     0     0     0     0
         5      4     3     1      4     0     0     0     0     0      4     0     0     0     0     0

#elevation of conduit nodes. Two possibilites
#first: node #  elevation (1 line for each node)
#second: nbrnodes elevation(only one line used to assign constant value)

  NODE ELEVATIONS:
           1   4.50000000000000     
           2   4.50000000000000     
           3   4.50000000000000     
           4   4.50000000000000     
           5   4.50000000000000     

#surface dependent exchange (set 1) or constant exchange (set 0)


#criterion for convergence


#maximum number for loop iterations


#parameter of relaxation


#newton raphson print flag

 P_NR               1
 L_NTS              0
 FINISHED READING NEWTON RAPHSON ITERATION CONTROLS
 READING NODE AND TUBE DATA

#data for tube parameters:
#no. diameter  tortuosity  roughness   lreynolds     treynolds

NO_P   DIAMETER  TORTUOSITY  RHEIGHT  LCRITREY_P TCRITREY_P
   1.     0.100        1.00   0.0100       10.00      20.00
   2.     0.100        1.00   0.0100       10.00      20.00
   3.     0.100        1.00   0.0100       10.00      20.00
   4.     0.100        1.00   0.0100       10.00      20.00

#node heads (if head unequal -1 the head is fixed)

 READING NODE BOUNDARY CONDITIONS (FIXED HEADS, IBOUNDS, AND FBCs)
  NODE  HEAD AND/OR IBOUND
 FBC OPTION NOT ENABLED, READING ORIGINAL FORMULATION INPUT:
        NO_N  N_HEAD
           1  -1.00000000000000     
           2   20.0000000000000     
           3  -1.00000000000000     
           4  -1.00000000000000     
           5  -1.00000000000000     
 SURFACE-AREA DEPENDENT EXCHANGE IS ACTIVE
 READING EXCHANGE COEFFICIENTS
 NODE_I  K_EXCHANGE(I)
   1      5.000    
   2      5.000    
   3      5.000    
   4      5.000    
   5      5.000    
 READING CONDUIT OUTPUT CONTROL FROM UNIT          23

#Mode 1 time series output
#Number of nodes for output

NNODES  5
NTSAN   0

#Node numbers, one per line

TSNO    1
TSNO    2
TSNO    3
TSNO    4
TSNO    5

#Output each n time steps

NOTSNO  1

#Number of tubes for output

NTUBES  4
NTSAT   0

#Tube numbers, one per line

TSTU    1
TSTU    2
TSTU    3
TSTU    4

#Output each n time steps

NOTSTU  1
 PROCESSING AND CHECKING CONDUIT-NETWORK
 TESTING THE CONDUIT NETWORK:
  NO ERRORS DETECTED           `:) 
  NO WARNINGS             `:)
 BEGINNING CFPM1 SUBROUTINE DETERM_TUB
 BEGINNING CFPM1 SUBROUTINE GEOCALC THAT CALCULATES XYZ COORDINATES OF NODES
 TOP-ARRAY / BOT-ARRAY:
   5.00000000000000             4.00000000000000     
   4.00000000000000             3.00000000000000     
   3.00000000000000             2.00000000000000     
  NODE   COLUMN    ROW    LAY      X         Y            Z      
      1      2      2      1     15.0000     15.0000     4.50000    
      2      1      3      1     5.00000     25.0000     4.50000    
      3      2      3      1     15.0000     25.0000     4.50000    
      4      3      3      1     25.0000     25.0000     4.50000    
      5      4      3      1     35.0000     25.0000     4.50000    
 
 BEGINNING CFPM1 LENGTH_CAL SUBROUTINE
 BEGINNING CFPM1 ROUGH_CAL SUBROUTINE


########################################################################################################

                           WARNING_MESSAGE

         THE FOLLOWING COMMENTS WERE PASSED TO THE WARNING ROUTINE

THE DESCRIPTION OF THE WARNING IS:

DIS PACKAGE: THE GROUND SURFACE ELEVATION WAS NOT SPECIFIED WITH THE KEYWORD "SURFACE_ELEVATION"

BEFORE LOADING THE "TOP" ARRAY FOR LAYER 1
NOR WAS IT DEFINED WITH ANOTHER PACKAGE   (e.g. FMPs GLOBAL DIMENSION KEYWORD "SURFACE_ELEVATION")

OneWater WILL SET THE GROUND SURFACE ELEVATION (GSE)
TO THE TOP ELEVATION OF THE UPPER MOST ACTIVE CELL OR THE DIS TOP OF LAY1.

NOTE THAT SFR DOES USE GSE FOR ALL DIVERSION SEGMENTS
   WHEN "IRDFLG" IS SET TO 2 or -2.

########################################################################################################



1
                            STRESS PERIOD NO.      1, LENGTH =   100.0000    
                            -----------------------------------------------

                              NUMBER OF TIME STEPS =     1

                               MULTIPLIER FOR DELT =     1.000

                            INITIAL TIME STEP SIZE =   100.0000    

PARAMETERS HAVE BEEN USED IN PACKAGES

THE CURRENT STORAGE FOR PARAMETERS IS: 
No. PARAMETER=         0 WITH MAX STORAGE (MXPAR)  OF      2000
No. CLUSTERS =         0 WITH MAX STORAGE (MXCLST) OF   2000000
No. INSTANCES=         0 WITH MAX STORAGE (MXINST) OF     50000

YOU CAN INCREASE/DECREASE STORAGE WITH BAS OPTION:
MAXPARAM  MXPAR  MXCLST MXINST

FYI, YOU CAN REDUCE RAM USUAGE WITH BAS OPTION
(NOTE THE THREE NUMBERS ARE A MINUMUM SIZE):
   MAXPARAM          1         1         1


                 RECHARGE =  3.000000E-03
 
 CFP1RCH1RP SUBROUTINE READING FROM UNIT           14
 READING INPUT USED TO PARTICIAN RECHARGE
 DATA FOR QCONDIR
 0.0     0.0     0.0     1.0     0.0   
 COMPUTE NODE LENGTH
 NODE I     L_NODE (I)
   1        5.000
   2        5.000
   3       15.000
   4       10.000
   5        5.000
 
 SOLVING FOR HEAD 
  LAMINAR PRECALCULATION
TUBE   1 SWITCH LAM -> TURB: LAM_RE (   127.9    ) >= TCRITREY:   20.00     TURB_RE:   228.3    
TUBE   2 SWITCH LAM -> TURB: LAM_RE (   4956.    ) >= TCRITREY:   20.00     TURB_RE:   1693.    
TUBE   3 SWITCH LAM -> TURB: LAM_RE (   4445.    ) >= TCRITREY:   20.00     TURB_RE:   1600.    
TUBE   4 SWITCH LAM -> TURB: LAM_RE (   3883.    ) >= TCRITREY:   20.00     TURB_RE:   1491.    
MODFLOW ITER.#  NEWTON-RAPHSON ITER.#   MAXIMUM NODE HEAD CHANGE
         1                   1                  0.0011665280
         1                   2                  0.0008346911
         1                   3                  0.0001098841
         1                   4                  0.0000012456
         1                   5                  0.0000000002
MODFLOW ITER.#  NEWTON-RAPHSON ITER.#   MAXIMUM NODE HEAD CHANGE
         2                   1                  0.0050897032
         2                   2                  0.0030913382
         2                   3                  0.0003320926
         2                   4                  0.0000037467
         2                   5                  0.0000000030
MODFLOW ITER.#  NEWTON-RAPHSON ITER.#   MAXIMUM NODE HEAD CHANGE
         3                   1                  0.0000230132
         3                   2                  0.0000000122
         3                   3                  0.0000000000
MODFLOW ITER.#  NEWTON-RAPHSON ITER.#   MAXIMUM NODE HEAD CHANGE
         4                   1                  0.0000000665
         4                   2                  0.0000000000
         4                   3                  0.0000000000


Solver Convergence Information:
                              HClose:  2.1943656E-9
                              RClose:  5.6311837E-6
                           L2-RClose:  9.2590596E-6
                         Rel-Vol-Err:  0.0
 
MODFLOW ITER.#  NEWTON-RAPHSON ITER.#   MAXIMUM NODE HEAD CHANGE
         4                   1                  0.0000000002
         4                   2                  0.0000000000
         4                   3                  0.0000000000

 OUTPUT CONTROL FOR STRESS PERIOD      1   TIME STEP     1
    PRINT HEAD FOR ALL LAYERS
    SAVE HEAD FOR ALL LAYERS
    SAVE BUDGET
 UBDSV1 SAVING "         STORAGE" ON UNIT 50 AT TIME STEP 1, STRESS PERIOD 1
 UBDSV2 SAVING "   CONSTANT HEAD" ON UNIT 50 AT TIME STEP 1, STRESS PERIOD 1
 UBDSV1 SAVING "FLOW RIGHT FACE " ON UNIT 50 AT TIME STEP 1, STRESS PERIOD 1
 UBDSV1 SAVING "FLOW FRONT FACE " ON UNIT 50 AT TIME STEP 1, STRESS PERIOD 1
 UBDSV1 SAVING "FLOW LOWER FACE " ON UNIT 50 AT TIME STEP 1, STRESS PERIOD 1
 UBDSV3 SAVING "        RECHARGE" ON UNIT 50 AT TIME STEP 1, STRESS PERIOD 1
 
 
 CFPM1 CRITERION OF CONVERGENCE:     0.1000000E-05
 CFPM1 MAXIMUM NUMBER OF ITERATIONS:   100
 
 
 CFPM1 RESULTS +++++++++++++++++++++++++++++++++++++++++++++++++++++++
 
 STRESS PERIOD/TIME STEP           1           1
 
NUMBER OF NEWTON RHAPSON ITERATIONS:     3
 
 ------- RESULTS OF FLOW CALCULATION -------
 
NODE#  NODE HEAD[M]   MATRIX HEAD [M] EXCHANGE [M^3/D]      CAD STORAGE    CADS RECHARGE         PFPSFLOW  DIRECT RECHARGE            QWELL             FHLQ           CAUCHY        CAUCHY LQ              QLH             QFIX
    1  20.00733          20.09757        -7.087780         0.000000         0.000000         0.000000         0.000000         0.000000         0.000000         0.000000         0.000000         0.000000         0.000000    
    2  20.00    FIX      20.00000         0.000000         0.000000         0.000000         0.000000         0.000000         0.000000         0.000000         0.000000         0.000000         0.000000        -79.90547    
    3  20.00726          20.09564        -20.82275         0.000000         0.000000         0.000000         0.000000         0.000000         0.000000         0.000000         0.000000         0.000000         0.000000    
    4  20.01036          20.19494        -28.99395         0.000000         0.000000         0.000000        0.3000000         0.000000         0.000000         0.000000         0.000000         0.000000         0.000000    
    5  20.01096          20.30000        -22.70100         0.000000         0.000000         0.000000         0.000000         0.000000         0.000000         0.000000         0.000000         0.000000         0.000000    
 
TUBE  B  E  FLOW          Q [M^3/D]       DIAM.[M]        LEN.[M]        RE         RESIDENCE TIME [D]
   1   1   3   TURB.         7.08778        0.10000       10.00000     1169.50540        0.01108
   2   2   3   TURB.       -79.90547        0.10000       10.00000    13184.64830        0.00098
   3   3   4   TURB.       -51.99495        0.10000       10.00000     8579.32581        0.00151
   4   4   5   TURB.       -22.70100        0.10000       10.00000     3745.73397        0.00346
 

    BUDGET OF THE PIPE SYSTEM OF TIMESTEP    1 IN STRESS PERIOD    1
------------------------------------------------------------------------

  TOTAL SIMULATION TIME   100.000000000000      S
 
        CUMULATIVE VALUES (L**3)        RATES THIS TIME STEP (L**3/T)

            IN:                               IN:
     CONSTANT HEAD =   0.0000000          CONSTANT HEAD =   0.0000000    
   MATRIX EXCHANGE =   7960.5473        MATRIX EXCHANGE =   79.605473    
     PIPE RECHARGE =   30.000000          PIPE RECHARGE =  0.30000000    
       PFP STORAGE =   0.0000000            PFP STORAGE =   0.0000000    

     CUMULATIVE IN =   7990.5473               TOTAL IN =   79.905473    

           OUT:                               OUT:
     CONSTANT HEAD =   7990.5473          CONSTANT HEAD =   79.905473    
   MATRIX EXCHANGE =   0.0000000        MATRIX EXCHANGE =   0.0000000    
     PIPE RECHARGE =   0.0000000          PIPE RECHARGE =   0.0000000    
       PFP STORAGE =   0.0000000            PFP STORAGE =   0.0000000    

    CUMULATIVE OUT =   7990.5473              TOTAL OUT =   79.905473    

          IN - OUT = -0.67120709E-09           IN - OUT = -0.67217343E-11
     PERCENT ERROR = -0.00                PERCENT ERROR = -0.00


 
 ------------------------NODE WATER BUDGET-----------------------
  STRESS PERIOD           1  TIME STEP           1
 TOTAL SIMULATION TIME   100.000000000000     
 
 FLOW TO THE NODE IN M^3/D
 
 NODE     FIXED HEAD     RECHARGE        QWELL  MATRIX EXCH      STORAGE      TUBE_IN     TUBE_OUT         CADS     FHLQ(LQ)       CAUCHY   CAUCHY(LQ)          QLH     IN - OUT
    1     0.0000       0.0000       0.0000       7.0878       0.0000       0.0000      -7.0878       0.0000       0.0000       0.0000       0.0000       0.0000      0.15483E-09
    2    -79.905       0.0000       0.0000       0.0000       0.0000       79.905       0.0000       0.0000       0.0000       0.0000       0.0000       0.0000       0.0000    
    3     0.0000       0.0000       0.0000       20.823       0.0000       59.083      -79.905       0.0000       0.0000       0.0000       0.0000       0.0000     -0.18092E-09
    4     0.0000      0.30000       0.0000       28.994       0.0000       22.701      -51.995       0.0000       0.0000       0.0000       0.0000       0.0000      0.33509E-10
    5     0.0000       0.0000       0.0000       22.701       0.0000       0.0000      -22.701       0.0000       0.0000       0.0000       0.0000       0.0000     -0.14136E-10
 TIME SERIES OUTPUT IN FILE ./output/NODE0001.out
 TIME SERIES OUTPUT IN FILE ./output/NODE0002.out
 TIME SERIES OUTPUT IN FILE ./output/NODE0003.out
 TIME SERIES OUTPUT IN FILE ./output/NODE0004.out
 TIME SERIES OUTPUT IN FILE ./output/NODE0005.out
 TIME SERIES OUTPUT IN FILE ./output/TUBE0001.out
 TIME SERIES OUTPUT IN FILE ./output/TUBE0002.out
 TIME SERIES OUTPUT IN FILE ./output/TUBE0003.out
 TIME SERIES OUTPUT IN FILE ./output/TUBE0004.out


     4 CALLS TO PCG ROUTINE FOR TIME STEP   1 IN STRESS PERIOD    1
    25 TOTAL ITERATIONS

 MAXIMUM HEAD CHANGE FOR EACH ITERATION (1 INDICATES THE FIRST INNER ITERATION):

    HEAD CHANGE    HEAD CHANGE    HEAD CHANGE    HEAD CHANGE    HEAD CHANGE 
   LAYER,ROW,COL  LAYER,ROW,COL  LAYER,ROW,COL  LAYER,ROW,COL  LAYER,ROW,COL
 ---------------------------------------------------------------------------
  1  0.1698      0  0.5100E-01  0  0.6404E-02  0  0.1488E-02  0 -0.2907E-03
   (  3,  2,  3)  (  3,  4,  2)  (  1,  2,  3)  (  1,  1,  3)  (  3,  4,  3)
  0  0.5106E-04  0  0.1206E-04  0  0.1917E-05  0 -0.4791E-06  0 -0.7329E-07
   (  2,  4,  3)  (  1,  3,  2)  (  2,  1,  2)  (  2,  3,  3)  (  2,  4,  2)
  1  0.2664E-03  0  0.7930E-04  0  0.1198E-04  0 -0.4204E-05  0 -0.1427E-05
   (  1,  3,  3)  (  1,  3,  2)  (  3,  1,  2)  (  3,  2,  3)  (  3,  4,  2)
  0 -0.1634E-06  0 -0.4184E-07  0  0.1721E-07  0  0.3127E-08  1  0.7584E-06
   (  3,  1,  2)  (  1,  4,  3)  (  2,  1,  2)  (  2,  2,  2)  (  1,  3,  3)
  0  0.2198E-06  0  0.3593E-07  0 -0.1206E-07  0 -0.4083E-08  1  0.2194E-08
   (  1,  3,  2)  (  3,  1,  2)  (  3,  2,  3)  (  3,  4,  2)  (  1,  3,  3)

 MAXIMUM RESIDUAL FOR EACH ITERATION (1 INDICATES THE FIRST INNER ITERATION):

    RESIDUAL       RESIDUAL       RESIDUAL       RESIDUAL       RESIDUAL    
   LAYER,ROW,COL  LAYER,ROW,COL  LAYER,ROW,COL  LAYER,ROW,COL  LAYER,ROW,COL
 ---------------------------------------------------------------------------
  1  -136.4      0  -55.93      0  -20.37      0  -1.652      0 -0.5537    
   (  3,  2,  2)  (  1,  2,  3)  (  1,  4,  3)  (  2,  2,  2)  (  2,  2,  2)
  0  0.1964      0 -0.1413E-01  0  0.3478E-02  0  0.1090E-02  0  0.2100E-03
   (  3,  2,  2)  (  2,  1,  2)  (  2,  3,  3)  (  2,  2,  3)  (  2,  3,  2)
  1 -0.6038      0 -0.1496      0 -0.3009E-01  0 -0.7718E-02  0  0.1557E-02
   (  1,  3,  2)  (  1,  3,  3)  (  1,  3,  3)  (  2,  2,  3)  (  3,  2,  3)
  0 -0.3728E-03  0 -0.1122E-03  0 -0.2712E-04  0  0.5783E-05  1 -0.1769E-02
   (  3,  3,  3)  (  2,  1,  2)  (  2,  2,  2)  (  2,  2,  3)  (  1,  3,  2)
  0 -0.4305E-03  0  0.8330E-04  0 -0.2253E-04  0  0.4448E-05  1 -0.5631E-05
   (  1,  3,  3)  (  3,  2,  3)  (  2,  2,  3)  (  3,  2,  3)  (  1,  3,  2)


1
              HEAD IN LAYER   1 AT END OF TIME STEP   1 IN STRESS PERIOD    1
  ---------------------------------------------------------------------------

            1           2           3           4
 ................................................
   1    20.00       20.10       20.20       20.30    
   2    20.00       20.10       20.20       20.30    
   3    20.00       20.10       20.19       20.30    
   4    20.00       20.10       20.20       20.30    
1
              HEAD IN LAYER   2 AT END OF TIME STEP   1 IN STRESS PERIOD    1
  ---------------------------------------------------------------------------

            1           2           3           4
 ................................................
   1    20.00       20.10       20.20       20.30    
   2    20.00       20.10       20.20       20.30    
   3    20.00       20.10       20.20       20.30    
   4    20.00       20.10       20.20       20.30    
1
              HEAD IN LAYER   3 AT END OF TIME STEP   1 IN STRESS PERIOD    1
  ---------------------------------------------------------------------------

            1           2           3           4
 ................................................
   1    20.00       20.10       20.20       20.30    
   2    20.00       20.10       20.20       20.30    
   3    20.00       20.10       20.20       20.30    
   4    20.00       20.10       20.20       20.30    

 HEAD WILL BE SAVED ON UNIT   51 AT END OF TIME STEP     1 IN STRESS PERIOD      1



  -------------------------------------------------------------------------------------
  VOLUMETRIC BUDGET FOR ENTIRE MODEL AT END OF TIME STEP    1 IN STRESS PERIOD      1
  -------------------------------------------------------------------------------------

     CUMULATIVE VOLUMES      L**3       RATES FOR THIS TIME STEP      L**3/T
     ------------------                 ------------------------

           IN:                                      IN:
           ---                                      ---
             STORAGE =           0.0000               STORAGE =           0.0000
       CONSTANT HEAD =      125033.3805         CONSTANT HEAD =        1250.3338
            RECHARGE =         210.0000              RECHARGE =           2.1000
               PIPES =           0.0000                 PIPES =           0.0000

            TOTAL IN =      125243.3805              TOTAL IN =        1252.4338

          OUT:                                     OUT:
          ----                                     ----
             STORAGE =           0.0000               STORAGE =           0.0000
       CONSTANT HEAD =      117282.8327         CONSTANT HEAD =        1172.8283
            RECHARGE =           0.0000              RECHARGE =           0.0000
               PIPES =        7960.5473                 PIPES =          79.6055

           TOTAL OUT =      125243.3800             TOTAL OUT =        1252.4338

            IN - OUT =       5.1007E-04              IN - OUT =       5.1007E-06

 PERCENT DISCREPANCY =           0.00     PERCENT DISCREPANCY =           0.00


          TIME SUMMARY AT END OF TIME STEP     1 IN STRESS PERIOD      1
                    SECONDS     MINUTES      HOURS       DAYS        YEARS
                    -----------------------------------------------------------
   TIME STEP LENGTH 8.64000E+06 1.44000E+05  2400.0      100.00     0.27379    
 STRESS PERIOD TIME 8.64000E+06 1.44000E+05  2400.0      100.00     0.27379    
         TOTAL TIME 8.64000E+06 1.44000E+05  2400.0      100.00     0.27379    
 
1
                            STRESS PERIOD NO.      2, LENGTH =   100.0000    
                            -----------------------------------------------

                              NUMBER OF TIME STEPS =    10

                               MULTIPLIER FOR DELT =     1.000

                            INITIAL TIME STEP SIZE =   10.00000    

                 RECHARGE =  1.000000E-03
 
 CFP1RCH1RP SUBROUTINE READING FROM UNIT           14
  REUSING DATA FROM LAST STRESS PERIOD
 DATA FOR QCONDIR
 0.0     0.0     0.0     1.0     0.0   

READING PCG SOLVER STRESS PERIOD INFORMATION


########################################################################################################################
PCG INPUT FILE STRESS PERIOD CONVERGENCE INFORMATION FAILED READ FOR STRESS PERIOD     2
 REUSING PREVIOUSLY DEFINED CRITERIA FOR REMAINDER OF SIMULATION.
########################################################################################################################
 
 SOLVING FOR HEAD 
MODFLOW ITER.#  NEWTON-RAPHSON ITER.#   MAXIMUM NODE HEAD CHANGE
         1                   1                  0.0000541171
         1                   2                  0.0000000682
         1                   3                  0.0000000000
MODFLOW ITER.#  NEWTON-RAPHSON ITER.#   MAXIMUM NODE HEAD CHANGE
         2                   1                  0.0000050381
         2                   2                  0.0000000006
         2                   3                  0.0000000000
MODFLOW ITER.#  NEWTON-RAPHSON ITER.#   MAXIMUM NODE HEAD CHANGE
         3                   1                  0.0000000150
         3                   2                  0.0000000000
         3                   3                  0.0000000000


Solver Convergence Information:
                              HClose:  9.0812691E-10
                              RClose:  3.4766272E-6
                           L2-RClose:  6.6143766E-6
                         Rel-Vol-Err:  0.0
 
MODFLOW ITER.#  NEWTON-RAPHSON ITER.#   MAXIMUM NODE HEAD CHANGE
         3                   1                  0.0000000000
         3                   2                  0.0000000000
         3                   3                  0.0000000000

 OUTPUT CONTROL FOR STRESS PERIOD      2   TIME STEP     1
    PRINT HEAD FOR ALL LAYERS
    SAVE HEAD FOR ALL LAYERS
    SAVE BUDGET
 UBDSV1 SAVING "         STORAGE" ON UNIT 50 AT TIME STEP 1, STRESS PERIOD 2
 UBDSV2 SAVING "   CONSTANT HEAD" ON UNIT 50 AT TIME STEP 1, STRESS PERIOD 2
 UBDSV1 SAVING "FLOW RIGHT FACE " ON UNIT 50 AT TIME STEP 1, STRESS PERIOD 2
 UBDSV1 SAVING "FLOW FRONT FACE " ON UNIT 50 AT TIME STEP 1, STRESS PERIOD 2
 UBDSV1 SAVING "FLOW LOWER FACE " ON UNIT 50 AT TIME STEP 1, STRESS PERIOD 2
 UBDSV3 SAVING "        RECHARGE" ON UNIT 50 AT TIME STEP 1, STRESS PERIOD 2
 
 
 CFPM1 CRITERION OF CONVERGENCE:     0.1000000E-05
 CFPM1 MAXIMUM NUMBER OF ITERATIONS:   100
 
 
 CFPM1 RESULTS +++++++++++++++++++++++++++++++++++++++++++++++++++++++
 
 STRESS PERIOD/TIME STEP           2           1
 
NUMBER OF NEWTON RHAPSON ITERATIONS:     3
 
 ------- RESULTS OF FLOW CALCULATION -------
 
NODE#  NODE HEAD[M]   MATRIX HEAD [M] EXCHANGE [M^3/D]      CAD STORAGE    CADS RECHARGE         PFPSFLOW  DIRECT RECHARGE            QWELL             FHLQ           CAUCHY        CAUCHY LQ              QLH             QFIX
    1  20.00729          20.09750        -7.085406         0.000000         0.000000         0.000000         0.000000         0.000000         0.000000         0.000000         0.000000         0.000000         0.000000    
    2  20.00    FIX      20.00000         0.000000         0.000000         0.000000         0.000000         0.000000         0.000000         0.000000         0.000000         0.000000         0.000000        -79.70395    
    3  20.00723          20.09558        -20.81661         0.000000         0.000000         0.000000         0.000000         0.000000         0.000000         0.000000         0.000000         0.000000         0.000000    
    4  20.01030          20.19490        -28.99631         0.000000         0.000000         0.000000        0.1000000         0.000000         0.000000         0.000000         0.000000         0.000000         0.000000    
    5  20.01090          20.30000        -22.70562         0.000000         0.000000         0.000000         0.000000         0.000000         0.000000         0.000000         0.000000         0.000000         0.000000    
 
TUBE  B  E  FLOW          Q [M^3/D]       DIAM.[M]        LEN.[M]        RE         RESIDENCE TIME [D]
   1   1   3   TURB.         7.08541        0.10000       10.00000     1169.11376        0.01108
   2   2   3   TURB.       -79.70395        0.10000       10.00000    13151.39650        0.00099
   3   3   4   TURB.       -51.80193        0.10000       10.00000     8547.47797        0.00152
   4   4   5   TURB.       -22.70562        0.10000       10.00000     3746.49676        0.00346
 

    BUDGET OF THE PIPE SYSTEM OF TIMESTEP    1 IN STRESS PERIOD    2
------------------------------------------------------------------------

  TOTAL SIMULATION TIME   110.000000000000      S
 
        CUMULATIVE VALUES (L**3)        RATES THIS TIME STEP (L**3/T)

            IN:                               IN:
     CONSTANT HEAD =   0.0000000          CONSTANT HEAD =   0.0000000    
   MATRIX EXCHANGE =   8756.5868        MATRIX EXCHANGE =   79.603951    
     PIPE RECHARGE =   31.000000          PIPE RECHARGE =  0.10000000    
       PFP STORAGE =   0.0000000            PFP STORAGE =   0.0000000    

     CUMULATIVE IN =   8787.5868               TOTAL IN =   79.703951    

           OUT:                               OUT:
     CONSTANT HEAD =   8787.5868          CONSTANT HEAD =   79.703951    
   MATRIX EXCHANGE =   0.0000000        MATRIX EXCHANGE =   0.0000000    
     PIPE RECHARGE =   0.0000000          PIPE RECHARGE =   0.0000000    
       PFP STORAGE =   0.0000000            PFP STORAGE =   0.0000000    

    CUMULATIVE OUT =   8787.5868              TOTAL OUT =   79.703951    

          IN - OUT = -0.77307050E-09           IN - OUT = -0.10189183E-10
     PERCENT ERROR = -0.00                PERCENT ERROR = -0.00


 
 ------------------------NODE WATER BUDGET-----------------------
  STRESS PERIOD           2  TIME STEP           1
 TOTAL SIMULATION TIME   110.000000000000     
 
 FLOW TO THE NODE IN M^3/D
 
 NODE     FIXED HEAD     RECHARGE        QWELL  MATRIX EXCH      STORAGE      TUBE_IN     TUBE_OUT         CADS     FHLQ(LQ)       CAUCHY   CAUCHY(LQ)          QLH     IN - OUT
    1     0.0000       0.0000       0.0000       7.0854       0.0000       0.0000      -7.0854       0.0000       0.0000       0.0000       0.0000       0.0000      0.83044E-10
    2    -79.704       0.0000       0.0000       0.0000       0.0000       79.704       0.0000       0.0000       0.0000       0.0000       0.0000       0.0000       0.0000    
    3     0.0000       0.0000       0.0000       20.817       0.0000       58.887      -79.704       0.0000       0.0000       0.0000       0.0000       0.0000     -0.11073E-09
    4     0.0000      0.10000       0.0000       28.996       0.0000       22.706      -51.802       0.0000       0.0000       0.0000       0.0000       0.0000      0.14587E-10
    5     0.0000       0.0000       0.0000       22.706       0.0000       0.0000      -22.706       0.0000       0.0000       0.0000       0.0000       0.0000      0.29239E-11


     3 CALLS TO PCG ROUTINE FOR TIME STEP   1 IN STRESS PERIOD    2
    13 TOTAL ITERATIONS
1
              HEAD IN LAYER   1 AT END OF TIME STEP   1 IN STRESS PERIOD    2
  ---------------------------------------------------------------------------

            1           2           3           4
 ................................................
   1    20.00       20.10       20.20       20.30    
   2    20.00       20.10       20.20       20.30    
   3    20.00       20.10       20.19       20.30    
   4    20.00       20.10       20.20       20.30    
1
              HEAD IN LAYER   2 AT END OF TIME STEP   1 IN STRESS PERIOD    2
  ---------------------------------------------------------------------------

            1           2           3           4
 ................................................
   1    20.00       20.10       20.20       20.30    
   2    20.00       20.10       20.20       20.30    
   3    20.00       20.10       20.20       20.30    
   4    20.00       20.10       20.20       20.30    
1
              HEAD IN LAYER   3 AT END OF TIME STEP   1 IN STRESS PERIOD    2
  ---------------------------------------------------------------------------

            1           2           3           4
 ................................................
   1    20.00       20.10       20.20       20.30    
   2    20.00       20.10       20.20       20.30    
   3    20.00       20.10       20.20       20.30    
   4    20.00       20.10       20.20       20.30    

 HEAD WILL BE SAVED ON UNIT   51 AT END OF TIME STEP     1 IN STRESS PERIOD      2

          TIME SUMMARY AT END OF TIME STEP     1 IN STRESS PERIOD      2
                    SECONDS     MINUTES      HOURS       DAYS        YEARS
                    -----------------------------------------------------------
   TIME STEP LENGTH 8.64000E+05  14400.      240.00      10.000     2.73785E-02
 STRESS PERIOD TIME 8.64000E+05  14400.      240.00      10.000     2.73785E-02
         TOTAL TIME 9.50400E+06 1.58400E+05  2640.0      110.00     0.30116    
 
 
 SOLVING FOR HEAD 
MODFLOW ITER.#  NEWTON-RAPHSON ITER.#   MAXIMUM NODE HEAD CHANGE
         1                   1                  0.0000000000
         1                   2                  0.0000000000
         1                   3                  0.0000000000


Solver Convergence Information:
                              HClose:  3.9167958E-10
                              RClose:  1.6367994E-6
                           L2-RClose:  3.2788792E-6
                         Rel-Vol-Err:  0.0
 
MODFLOW ITER.#  NEWTON-RAPHSON ITER.#   MAXIMUM NODE HEAD CHANGE
         1                   1                  0.0000000000
         1                   2                  0.0000000000
         1                   3                  0.0000000000

 NO OUTPUT CONTROL FOR STRESS PERIOD      2   TIME STEP     2
 
 
 CFPM1 CRITERION OF CONVERGENCE:     0.1000000E-05
 CFPM1 MAXIMUM NUMBER OF ITERATIONS:   100
 
 
 CFPM1 RESULTS +++++++++++++++++++++++++++++++++++++++++++++++++++++++
 
 STRESS PERIOD/TIME STEP           2           2
 
NUMBER OF NEWTON RHAPSON ITERATIONS:     3
 
 ------- RESULTS OF FLOW CALCULATION -------
 
NODE#  NODE HEAD[M]   MATRIX HEAD [M] EXCHANGE [M^3/D]      CAD STORAGE    CADS RECHARGE         PFPSFLOW  DIRECT RECHARGE            QWELL             FHLQ           CAUCHY        CAUCHY LQ              QLH             QFIX
    1  20.00729          20.09750        -7.085406         0.000000         0.000000         0.000000         0.000000         0.000000         0.000000         0.000000         0.000000         0.000000         0.000000    
    2  20.00    FIX      20.00000         0.000000         0.000000         0.000000         0.000000         0.000000         0.000000         0.000000         0.000000         0.000000         0.000000        -79.70395    
    3  20.00723          20.09558        -20.81661         0.000000         0.000000         0.000000         0.000000         0.000000         0.000000         0.000000         0.000000         0.000000         0.000000    
    4  20.01030          20.19490        -28.99631         0.000000         0.000000         0.000000        0.1000000         0.000000         0.000000         0.000000         0.000000         0.000000         0.000000    
    5  20.01090          20.30000        -22.70562         0.000000         0.000000         0.000000         0.000000         0.000000         0.000000         0.000000         0.000000         0.000000         0.000000    
 
TUBE  B  E  FLOW          Q [M^3/D]       DIAM.[M]        LEN.[M]        RE         RESIDENCE TIME [D]
   1   1   3   TURB.         7.08541        0.10000       10.00000     1169.11376        0.01108
   2   2   3   TURB.       -79.70395        0.10000       10.00000    13151.39649        0.00099
   3   3   4   TURB.       -51.80193        0.10000       10.00000     8547.47797        0.00152
   4   4   5   TURB.       -22.70562        0.10000       10.00000     3746.49676        0.00346
 

    BUDGET OF THE PIPE SYSTEM OF TIMESTEP    2 IN STRESS PERIOD    2
------------------------------------------------------------------------

  TOTAL SIMULATION TIME   120.000000000000      S
 
        CUMULATIVE VALUES (L**3)        RATES THIS TIME STEP (L**3/T)

            IN:                               IN:
     CONSTANT HEAD =   0.0000000          CONSTANT HEAD =   0.0000000    
   MATRIX EXCHANGE =   9552.6263        MATRIX EXCHANGE =   79.603951    
     PIPE RECHARGE =   32.000000          PIPE RECHARGE =  0.10000000    
       PFP STORAGE =   0.0000000            PFP STORAGE =   0.0000000    

     CUMULATIVE IN =   9584.6263               TOTAL IN =   79.703951    

           OUT:                               OUT:
     CONSTANT HEAD =   9584.6263          CONSTANT HEAD =   79.703951    
   MATRIX EXCHANGE =   0.0000000        MATRIX EXCHANGE =   0.0000000    
     PIPE RECHARGE =   0.0000000          PIPE RECHARGE =   0.0000000    
       PFP STORAGE =   0.0000000            PFP STORAGE =   0.0000000    

    CUMULATIVE OUT =   9584.6263              TOTAL OUT =   79.703951    

          IN - OUT = -0.72213879E-09           IN - OUT =  0.50732751E-11
     PERCENT ERROR = -0.00                PERCENT ERROR =  0.00


 
 ------------------------NODE WATER BUDGET-----------------------
  STRESS PERIOD           2  TIME STEP           2
 TOTAL SIMULATION TIME   120.000000000000     
 
 FLOW TO THE NODE IN M^3/D
 
 NODE     FIXED HEAD     RECHARGE        QWELL  MATRIX EXCH      STORAGE      TUBE_IN     TUBE_OUT         CADS     FHLQ(LQ)       CAUCHY   CAUCHY(LQ)          QLH     IN - OUT
    1     0.0000       0.0000       0.0000       7.0854       0.0000       0.0000      -7.0854       0.0000       0.0000       0.0000       0.0000       0.0000     -0.10483E-09
    2    -79.704       0.0000       0.0000       0.0000       0.0000       79.704       0.0000       0.0000       0.0000       0.0000       0.0000       0.0000       0.0000    
    3     0.0000       0.0000       0.0000       20.817       0.0000       58.887      -79.704       0.0000       0.0000       0.0000       0.0000       0.0000      0.13252E-09
    4     0.0000      0.10000       0.0000       28.996       0.0000       22.706      -51.802       0.0000       0.0000       0.0000       0.0000       0.0000     -0.73108E-10
    5     0.0000       0.0000       0.0000       22.706       0.0000       0.0000      -22.706       0.0000       0.0000       0.0000       0.0000       0.0000      0.50520E-10
     1 CALLS TO PCG ROUTINE FOR TIME STEP   2 IN STRESS PERIOD    2
     1 TOTAL ITERATIONS
 
 SOLVING FOR HEAD 
MODFLOW ITER.#  NEWTON-RAPHSON ITER.#   MAXIMUM NODE HEAD CHANGE
         1                   1                  0.0000000000
         1                   2                  0.0000000000
         1                   3                  0.0000000000


Solver Convergence Information:
                              HClose:  1.8198776E-10
                              RClose:  7.7608274E-7
                           L2-RClose:  1.4623716E-6
                         Rel-Vol-Err:  0.0
 
MODFLOW ITER.#  NEWTON-RAPHSON ITER.#   MAXIMUM NODE HEAD CHANGE
         1                   1                  0.0000000000
         1                   2                  0.0000000000
         1                   3                  0.0000000000

 NO OUTPUT CONTROL FOR STRESS PERIOD      2   TIME STEP     3
 
 
 CFPM1 CRITERION OF CONVERGENCE:     0.1000000E-05
 CFPM1 MAXIMUM NUMBER OF ITERATIONS:   100
 
 
 CFPM1 RESULTS +++++++++++++++++++++++++++++++++++++++++++++++++++++++
 
 STRESS PERIOD/TIME STEP           2           3
 
NUMBER OF NEWTON RHAPSON ITERATIONS:     3
 
 ------- RESULTS OF FLOW CALCULATION -------
 
NODE#  NODE HEAD[M]   MATRIX HEAD [M] EXCHANGE [M^3/D]      CAD STORAGE    CADS RECHARGE         PFPSFLOW  DIRECT RECHARGE            QWELL             FHLQ           CAUCHY        CAUCHY LQ              QLH             QFIX
    1  20.00729          20.09750        -7.085406         0.000000         0.000000         0.000000         0.000000         0.000000         0.000000         0.000000         0.000000         0.000000         0.000000    
    2  20.00    FIX      20.00000         0.000000         0.000000         0.000000         0.000000         0.000000         0.000000         0.000000         0.000000         0.000000         0.000000        -79.70395    
    3  20.00723          20.09558        -20.81661         0.000000         0.000000         0.000000         0.000000         0.000000         0.000000         0.000000         0.000000         0.000000         0.000000    
    4  20.01030          20.19490        -28.99631         0.000000         0.000000         0.000000        0.1000000         0.000000         0.000000         0.000000         0.000000         0.000000         0.000000    
    5  20.01090          20.30000        -22.70562         0.000000         0.000000         0.000000         0.000000         0.000000         0.000000         0.000000         0.000000         0.000000         0.000000    
 
TUBE  B  E  FLOW          Q [M^3/D]       DIAM.[M]        LEN.[M]        RE         RESIDENCE TIME [D]
   1   1   3   TURB.         7.08541        0.10000       10.00000     1169.11375        0.01108
   2   2   3   TURB.       -79.70395        0.10000       10.00000    13151.39649        0.00099
   3   3   4   TURB.       -51.80193        0.10000       10.00000     8547.47797        0.00152
   4   4   5   TURB.       -22.70562        0.10000       10.00000     3746.49676        0.00346
 

    BUDGET OF THE PIPE SYSTEM OF TIMESTEP    3 IN STRESS PERIOD    2
------------------------------------------------------------------------

  TOTAL SIMULATION TIME   130.000000000000      S
 
        CUMULATIVE VALUES (L**3)        RATES THIS TIME STEP (L**3/T)

            IN:                               IN:
     CONSTANT HEAD =   0.0000000          CONSTANT HEAD =   0.0000000    
   MATRIX EXCHANGE =   10348.666        MATRIX EXCHANGE =   79.603951    
     PIPE RECHARGE =   33.000000          PIPE RECHARGE =  0.10000000    
       PFP STORAGE =   0.0000000            PFP STORAGE =   0.0000000    

     CUMULATIVE IN =   10381.666               TOTAL IN =   79.703951    

           OUT:                               OUT:
     CONSTANT HEAD =   10381.666          CONSTANT HEAD =   79.703951    
   MATRIX EXCHANGE =   0.0000000        MATRIX EXCHANGE =   0.0000000    
     PIPE RECHARGE =   0.0000000          PIPE RECHARGE =   0.0000000    
       PFP STORAGE =   0.0000000            PFP STORAGE =   0.0000000    

    CUMULATIVE OUT =   10381.666              TOTAL OUT =   79.703951    

          IN - OUT = -0.68212103E-09           IN - OUT =  0.39079850E-11
     PERCENT ERROR = -0.00                PERCENT ERROR =  0.00


 
 ------------------------NODE WATER BUDGET-----------------------
  STRESS PERIOD           2  TIME STEP           3
 TOTAL SIMULATION TIME   130.000000000000     
 
 FLOW TO THE NODE IN M^3/D
 
 NODE     FIXED HEAD     RECHARGE        QWELL  MATRIX EXCH      STORAGE      TUBE_IN     TUBE_OUT         CADS     FHLQ(LQ)       CAUCHY   CAUCHY(LQ)          QLH     IN - OUT
    1     0.0000       0.0000       0.0000       7.0854       0.0000       0.0000      -7.0854       0.0000       0.0000       0.0000       0.0000       0.0000     -0.90689E-10
    2    -79.704       0.0000       0.0000       0.0000       0.0000       79.704       0.0000       0.0000       0.0000       0.0000       0.0000       0.0000       0.0000    
    3     0.0000       0.0000       0.0000       20.817       0.0000       58.887      -79.704       0.0000       0.0000       0.0000       0.0000       0.0000      0.10697E-09
    4     0.0000      0.10000       0.0000       28.996       0.0000       22.706      -51.802       0.0000       0.0000       0.0000       0.0000       0.0000     -0.88889E-11
    5     0.0000       0.0000       0.0000       22.706       0.0000       0.0000      -22.706       0.0000       0.0000       0.0000       0.0000       0.0000     -0.34568E-11
     1 CALLS TO PCG ROUTINE FOR TIME STEP   3 IN STRESS PERIOD    2
     1 TOTAL ITERATIONS
 
 SOLVING FOR HEAD 
MODFLOW ITER.#  NEWTON-RAPHSON ITER.#   MAXIMUM NODE HEAD CHANGE
         1                   1                  0.0000000000
         1                   2                  0.0000000000
         1                   3                  0.0000000000


Solver Convergence Information:
                              HClose:  8.4167340E-11
                              RClose:  3.6874553E-7
                           L2-RClose:  7.2226406E-7
                         Rel-Vol-Err:  0.0
 
MODFLOW ITER.#  NEWTON-RAPHSON ITER.#   MAXIMUM NODE HEAD CHANGE
         1                   1                  0.0000000000
         1                   2                  0.0000000000
         1                   3                  0.0000000000

 NO OUTPUT CONTROL FOR STRESS PERIOD      2   TIME STEP     4
 
 
 CFPM1 CRITERION OF CONVERGENCE:     0.1000000E-05
 CFPM1 MAXIMUM NUMBER OF ITERATIONS:   100
 
 
 CFPM1 RESULTS +++++++++++++++++++++++++++++++++++++++++++++++++++++++
 
 STRESS PERIOD/TIME STEP           2           4
 
NUMBER OF NEWTON RHAPSON ITERATIONS:     3
 
 ------- RESULTS OF FLOW CALCULATION -------
 
NODE#  NODE HEAD[M]   MATRIX HEAD [M] EXCHANGE [M^3/D]      CAD STORAGE    CADS RECHARGE         PFPSFLOW  DIRECT RECHARGE            QWELL             FHLQ           CAUCHY        CAUCHY LQ              QLH             QFIX
    1  20.00729          20.09750        -7.085406         0.000000         0.000000         0.000000         0.000000         0.000000         0.000000         0.000000         0.000000         0.000000         0.000000    
    2  20.00    FIX      20.00000         0.000000         0.000000         0.000000         0.000000         0.000000         0.000000         0.000000         0.000000         0.000000         0.000000        -79.70395    
    3  20.00723          20.09558        -20.81661         0.000000         0.000000         0.000000         0.000000         0.000000         0.000000         0.000000         0.000000         0.000000         0.000000    
    4  20.01030          20.19490        -28.99631         0.000000         0.000000         0.000000        0.1000000         0.000000         0.000000         0.000000         0.000000         0.000000         0.000000    
    5  20.01090          20.30000        -22.70562         0.000000         0.000000         0.000000         0.000000         0.000000         0.000000         0.000000         0.000000         0.000000         0.000000    
 
TUBE  B  E  FLOW          Q [M^3/D]       DIAM.[M]        LEN.[M]        RE         RESIDENCE TIME [D]
   1   1   3   TURB.         7.08541        0.10000       10.00000     1169.11375        0.01108
   2   2   3   TURB.       -79.70395        0.10000       10.00000    13151.39649        0.00099
   3   3   4   TURB.       -51.80193        0.10000       10.00000     8547.47797        0.00152
   4   4   5   TURB.       -22.70562        0.10000       10.00000     3746.49676        0.00346
 

    BUDGET OF THE PIPE SYSTEM OF TIMESTEP    4 IN STRESS PERIOD    2
------------------------------------------------------------------------

  TOTAL SIMULATION TIME   140.000000000000      S
 
        CUMULATIVE VALUES (L**3)        RATES THIS TIME STEP (L**3/T)

            IN:                               IN:
     CONSTANT HEAD =   0.0000000          CONSTANT HEAD =   0.0000000    
   MATRIX EXCHANGE =   11144.705        MATRIX EXCHANGE =   79.603951    
     PIPE RECHARGE =   34.000000          PIPE RECHARGE =  0.10000000    
       PFP STORAGE =   0.0000000            PFP STORAGE =   0.0000000    

     CUMULATIVE IN =   11178.705               TOTAL IN =   79.703951    

           OUT:                               OUT:
     CONSTANT HEAD =   11178.705          CONSTANT HEAD =   79.703951    
   MATRIX EXCHANGE =   0.0000000        MATRIX EXCHANGE =   0.0000000    
     PIPE RECHARGE =   0.0000000          PIPE RECHARGE =   0.0000000    
       PFP STORAGE =   0.0000000            PFP STORAGE =   0.0000000    

    CUMULATIVE OUT =   11178.705              TOTAL OUT =   79.703951    

          IN - OUT = -0.73850970E-09           IN - OUT = -0.55990768E-11
     PERCENT ERROR = -0.00                PERCENT ERROR = -0.00


 
 ------------------------NODE WATER BUDGET-----------------------
  STRESS PERIOD           2  TIME STEP           4
 TOTAL SIMULATION TIME   140.000000000000     
 
 FLOW TO THE NODE IN M^3/D
 
 NODE     FIXED HEAD     RECHARGE        QWELL  MATRIX EXCH      STORAGE      TUBE_IN     TUBE_OUT         CADS     FHLQ(LQ)       CAUCHY   CAUCHY(LQ)          QLH     IN - OUT
    1     0.0000       0.0000       0.0000       7.0854       0.0000       0.0000      -7.0854       0.0000       0.0000       0.0000       0.0000       0.0000     -0.26231E-10
    2    -79.704       0.0000       0.0000       0.0000       0.0000       79.704       0.0000       0.0000       0.0000       0.0000       0.0000       0.0000       0.0000    
    3     0.0000       0.0000       0.0000       20.817       0.0000       58.887      -79.704       0.0000       0.0000       0.0000       0.0000       0.0000      0.21799E-10
    4     0.0000      0.10000       0.0000       28.996       0.0000       22.706      -51.802       0.0000       0.0000       0.0000       0.0000       0.0000     -0.13600E-10
    5     0.0000       0.0000       0.0000       22.706       0.0000       0.0000      -22.706       0.0000       0.0000       0.0000       0.0000       0.0000      0.12449E-10
     1 CALLS TO PCG ROUTINE FOR TIME STEP   4 IN STRESS PERIOD    2
     1 TOTAL ITERATIONS
 
 SOLVING FOR HEAD 
MODFLOW ITER.#  NEWTON-RAPHSON ITER.#   MAXIMUM NODE HEAD CHANGE
         1                   1                  0.0000000000
         1                   2                  0.0000000000
         1                   3                  0.0000000000


Solver Convergence Information:
                              HClose:  4.2334136E-11
                              RClose:  1.7549610E-7
                           L2-RClose:  3.2896633E-7
                         Rel-Vol-Err:  0.0
 
MODFLOW ITER.#  NEWTON-RAPHSON ITER.#   MAXIMUM NODE HEAD CHANGE
         1                   1                  0.0000000000
         1                   2                  0.0000000000
         1                   3                  0.0000000000

 NO OUTPUT CONTROL FOR STRESS PERIOD      2   TIME STEP     5
 
 
 CFPM1 CRITERION OF CONVERGENCE:     0.1000000E-05
 CFPM1 MAXIMUM NUMBER OF ITERATIONS:   100
 
 
 CFPM1 RESULTS +++++++++++++++++++++++++++++++++++++++++++++++++++++++
 
 STRESS PERIOD/TIME STEP           2           5
 
NUMBER OF NEWTON RHAPSON ITERATIONS:     3
 
 ------- RESULTS OF FLOW CALCULATION -------
 
NODE#  NODE HEAD[M]   MATRIX HEAD [M] EXCHANGE [M^3/D]      CAD STORAGE    CADS RECHARGE         PFPSFLOW  DIRECT RECHARGE            QWELL             FHLQ           CAUCHY        CAUCHY LQ              QLH             QFIX
    1  20.00729          20.09750        -7.085406         0.000000         0.000000         0.000000         0.000000         0.000000         0.000000         0.000000         0.000000         0.000000         0.000000    
    2  20.00    FIX      20.00000         0.000000         0.000000         0.000000         0.000000         0.000000         0.000000         0.000000         0.000000         0.000000         0.000000        -79.70395    
    3  20.00723          20.09558        -20.81661         0.000000         0.000000         0.000000         0.000000         0.000000         0.000000         0.000000         0.000000         0.000000         0.000000    
    4  20.01030          20.19490        -28.99631         0.000000         0.000000         0.000000        0.1000000         0.000000         0.000000         0.000000         0.000000         0.000000         0.000000    
    5  20.01090          20.30000        -22.70562         0.000000         0.000000         0.000000         0.000000         0.000000         0.000000         0.000000         0.000000         0.000000         0.000000    
 
TUBE  B  E  FLOW          Q [M^3/D]       DIAM.[M]        LEN.[M]        RE         RESIDENCE TIME [D]
   1   1   3   TURB.         7.08541        0.10000       10.00000     1169.11375        0.01108
   2   2   3   TURB.       -79.70395        0.10000       10.00000    13151.39649        0.00099
   3   3   4   TURB.       -51.80193        0.10000       10.00000     8547.47797        0.00152
   4   4   5   TURB.       -22.70562        0.10000       10.00000     3746.49676        0.00346
 

    BUDGET OF THE PIPE SYSTEM OF TIMESTEP    5 IN STRESS PERIOD    2
------------------------------------------------------------------------

  TOTAL SIMULATION TIME   150.000000000000      S
 
        CUMULATIVE VALUES (L**3)        RATES THIS TIME STEP (L**3/T)

            IN:                               IN:
     CONSTANT HEAD =   0.0000000          CONSTANT HEAD =   0.0000000    
   MATRIX EXCHANGE =   11940.745        MATRIX EXCHANGE =   79.603951    
     PIPE RECHARGE =   35.000000          PIPE RECHARGE =  0.10000000    
       PFP STORAGE =   0.0000000            PFP STORAGE =   0.0000000    

     CUMULATIVE IN =   11975.745               TOTAL IN =   79.703951    

           OUT:                               OUT:
     CONSTANT HEAD =   11975.745          CONSTANT HEAD =   79.703951    
   MATRIX EXCHANGE =   0.0000000        MATRIX EXCHANGE =   0.0000000    
     PIPE RECHARGE =   0.0000000          PIPE RECHARGE =   0.0000000    
       PFP STORAGE =   0.0000000            PFP STORAGE =   0.0000000    

    CUMULATIVE OUT =   11975.745              TOTAL OUT =   79.703951    

          IN - OUT = -0.74942363E-09           IN - OUT = -0.10089707E-11
     PERCENT ERROR = -0.00                PERCENT ERROR = -0.00


 
 ------------------------NODE WATER BUDGET-----------------------
  STRESS PERIOD           2  TIME STEP           5
 TOTAL SIMULATION TIME   150.000000000000     
 
 FLOW TO THE NODE IN M^3/D
 
 NODE     FIXED HEAD     RECHARGE        QWELL  MATRIX EXCH      STORAGE      TUBE_IN     TUBE_OUT         CADS     FHLQ(LQ)       CAUCHY   CAUCHY(LQ)          QLH     IN - OUT
    1     0.0000       0.0000       0.0000       7.0854       0.0000       0.0000      -7.0854       0.0000       0.0000       0.0000       0.0000       0.0000      0.70672E-11
    2    -79.704       0.0000       0.0000       0.0000       0.0000       79.704       0.0000       0.0000       0.0000       0.0000       0.0000       0.0000       0.0000    
    3     0.0000       0.0000       0.0000       20.817       0.0000       58.887      -79.704       0.0000       0.0000       0.0000       0.0000       0.0000     -0.11610E-10
    4     0.0000      0.10000       0.0000       28.996       0.0000       22.706      -51.802       0.0000       0.0000       0.0000       0.0000       0.0000      0.15490E-10
    5     0.0000       0.0000       0.0000       22.706       0.0000       0.0000      -22.706       0.0000       0.0000       0.0000       0.0000       0.0000     -0.11941E-10
     1 CALLS TO PCG ROUTINE FOR TIME STEP   5 IN STRESS PERIOD    2
     1 TOTAL ITERATIONS

 MAXIMUM HEAD CHANGE FOR EACH ITERATION (1 INDICATES THE FIRST INNER ITERATION):

    HEAD CHANGE    HEAD CHANGE    HEAD CHANGE    HEAD CHANGE    HEAD CHANGE 
   LAYER,ROW,COL  LAYER,ROW,COL  LAYER,ROW,COL  LAYER,ROW,COL  LAYER,ROW,COL
 ---------------------------------------------------------------------------
  1 -0.4233E-10
   (  1,  2,  3)

 MAXIMUM RESIDUAL FOR EACH ITERATION (1 INDICATES THE FIRST INNER ITERATION):

    RESIDUAL       RESIDUAL       RESIDUAL       RESIDUAL       RESIDUAL    
   LAYER,ROW,COL  LAYER,ROW,COL  LAYER,ROW,COL  LAYER,ROW,COL  LAYER,ROW,COL
 ---------------------------------------------------------------------------
  1  0.1755E-06
   (  1,  3,  2)


 
 SOLVING FOR HEAD 
MODFLOW ITER.#  NEWTON-RAPHSON ITER.#   MAXIMUM NODE HEAD CHANGE
         1                   1                  0.0000000000
         1                   2                  0.0000000000
         1                   3                  0.0000000000


Solver Convergence Information:
                              HClose:  1.8790303E-11
                              RClose:  8.3702616E-8
                           L2-RClose:  1.6279747E-7
                         Rel-Vol-Err:  0.0
 
MODFLOW ITER.#  NEWTON-RAPHSON ITER.#   MAXIMUM NODE HEAD CHANGE
         1                   1                  0.0000000000
         1                   2                  0.0000000000
         1                   3                  0.0000000000

 NO OUTPUT CONTROL FOR STRESS PERIOD      2   TIME STEP     6
 
 
 CFPM1 CRITERION OF CONVERGENCE:     0.1000000E-05
 CFPM1 MAXIMUM NUMBER OF ITERATIONS:   100
 
 
 CFPM1 RESULTS +++++++++++++++++++++++++++++++++++++++++++++++++++++++
 
 STRESS PERIOD/TIME STEP           2           6
 
NUMBER OF NEWTON RHAPSON ITERATIONS:     3
 
 ------- RESULTS OF FLOW CALCULATION -------
 
NODE#  NODE HEAD[M]   MATRIX HEAD [M] EXCHANGE [M^3/D]      CAD STORAGE    CADS RECHARGE         PFPSFLOW  DIRECT RECHARGE            QWELL             FHLQ           CAUCHY        CAUCHY LQ              QLH             QFIX
    1  20.00729          20.09750        -7.085406         0.000000         0.000000         0.000000         0.000000         0.000000         0.000000         0.000000         0.000000         0.000000         0.000000    
    2  20.00    FIX      20.00000         0.000000         0.000000         0.000000         0.000000         0.000000         0.000000         0.000000         0.000000         0.000000         0.000000        -79.70395    
    3  20.00723          20.09558        -20.81661         0.000000         0.000000         0.000000         0.000000         0.000000         0.000000         0.000000         0.000000         0.000000         0.000000    
    4  20.01030          20.19490        -28.99631         0.000000         0.000000         0.000000        0.1000000         0.000000         0.000000         0.000000         0.000000         0.000000         0.000000    
    5  20.01090          20.30000        -22.70562         0.000000         0.000000         0.000000         0.000000         0.000000         0.000000         0.000000         0.000000         0.000000         0.000000    
 
TUBE  B  E  FLOW          Q [M^3/D]       DIAM.[M]        LEN.[M]        RE         RESIDENCE TIME [D]
   1   1   3   TURB.         7.08541        0.10000       10.00000     1169.11375        0.01108
   2   2   3   TURB.       -79.70395        0.10000       10.00000    13151.39649        0.00099
   3   3   4   TURB.       -51.80193        0.10000       10.00000     8547.47797        0.00152
   4   4   5   TURB.       -22.70562        0.10000       10.00000     3746.49676        0.00346
 

    BUDGET OF THE PIPE SYSTEM OF TIMESTEP    6 IN STRESS PERIOD    2
------------------------------------------------------------------------

  TOTAL SIMULATION TIME   160.000000000000      S
 
        CUMULATIVE VALUES (L**3)        RATES THIS TIME STEP (L**3/T)

            IN:                               IN:
     CONSTANT HEAD =   0.0000000          CONSTANT HEAD =   0.0000000    
   MATRIX EXCHANGE =   12736.784        MATRIX EXCHANGE =   79.603951    
     PIPE RECHARGE =   36.000000          PIPE RECHARGE =  0.10000000    
       PFP STORAGE =   0.0000000            PFP STORAGE =   0.0000000    

     CUMULATIVE IN =   12772.784               TOTAL IN =   79.703951    

           OUT:                               OUT:
     CONSTANT HEAD =   12772.784          CONSTANT HEAD =   79.703951    
   MATRIX EXCHANGE =   0.0000000        MATRIX EXCHANGE =   0.0000000    
     PIPE RECHARGE =   0.0000000          PIPE RECHARGE =   0.0000000    
       PFP STORAGE =   0.0000000            PFP STORAGE =   0.0000000    

    CUMULATIVE OUT =   12772.784              TOTAL OUT =   79.703951    

          IN - OUT = -0.82400220E-09           IN - OUT = -0.75743856E-11
     PERCENT ERROR = -0.00                PERCENT ERROR = -0.00


 
 ------------------------NODE WATER BUDGET-----------------------
  STRESS PERIOD           2  TIME STEP           6
 TOTAL SIMULATION TIME   160.000000000000     
 
 FLOW TO THE NODE IN M^3/D
 
 NODE     FIXED HEAD     RECHARGE        QWELL  MATRIX EXCH      STORAGE      TUBE_IN     TUBE_OUT         CADS     FHLQ(LQ)       CAUCHY   CAUCHY(LQ)          QLH     IN - OUT
    1     0.0000       0.0000       0.0000       7.0854       0.0000       0.0000      -7.0854       0.0000       0.0000       0.0000       0.0000       0.0000      0.27530E-10
    2    -79.704       0.0000       0.0000       0.0000       0.0000       79.704       0.0000       0.0000       0.0000       0.0000       0.0000       0.0000       0.0000    
    3     0.0000       0.0000       0.0000       20.817       0.0000       58.887      -79.704       0.0000       0.0000       0.0000       0.0000       0.0000     -0.40487E-10
    4     0.0000      0.10000       0.0000       28.996       0.0000       22.706      -51.802       0.0000       0.0000       0.0000       0.0000       0.0000      0.14261E-10
    5     0.0000       0.0000       0.0000       22.706       0.0000       0.0000      -22.706       0.0000       0.0000       0.0000       0.0000       0.0000     -0.88711E-11
     1 CALLS TO PCG ROUTINE FOR TIME STEP   6 IN STRESS PERIOD    2
     1 TOTAL ITERATIONS
 
 SOLVING FOR HEAD 
MODFLOW ITER.#  NEWTON-RAPHSON ITER.#   MAXIMUM NODE HEAD CHANGE
         1                   1                  0.0000000000
         1                   2                  0.0000000000
         1                   3                  0.0000000000


Solver Convergence Information:
                              HClose:  9.8516750E-12
                              RClose:  3.9988663E-8
                           L2-RClose:  7.5274682E-8
                         Rel-Vol-Err:  0.0
 
MODFLOW ITER.#  NEWTON-RAPHSON ITER.#   MAXIMUM NODE HEAD CHANGE
         1                   1                  0.0000000000
         1                   2                  0.0000000000
         1                   3                  0.0000000000

 NO OUTPUT CONTROL FOR STRESS PERIOD      2   TIME STEP     7
 
 
 CFPM1 CRITERION OF CONVERGENCE:     0.1000000E-05
 CFPM1 MAXIMUM NUMBER OF ITERATIONS:   100
 
 
 CFPM1 RESULTS +++++++++++++++++++++++++++++++++++++++++++++++++++++++
 
 STRESS PERIOD/TIME STEP           2           7
 
NUMBER OF NEWTON RHAPSON ITERATIONS:     3
 
 ------- RESULTS OF FLOW CALCULATION -------
 
NODE#  NODE HEAD[M]   MATRIX HEAD [M] EXCHANGE [M^3/D]      CAD STORAGE    CADS RECHARGE         PFPSFLOW  DIRECT RECHARGE            QWELL             FHLQ           CAUCHY        CAUCHY LQ              QLH             QFIX
    1  20.00729          20.09750        -7.085406         0.000000         0.000000         0.000000         0.000000         0.000000         0.000000         0.000000         0.000000         0.000000         0.000000    
    2  20.00    FIX      20.00000         0.000000         0.000000         0.000000         0.000000         0.000000         0.000000         0.000000         0.000000         0.000000         0.000000        -79.70395    
    3  20.00723          20.09558        -20.81661         0.000000         0.000000         0.000000         0.000000         0.000000         0.000000         0.000000         0.000000         0.000000         0.000000    
    4  20.01030          20.19490        -28.99631         0.000000         0.000000         0.000000        0.1000000         0.000000         0.000000         0.000000         0.000000         0.000000         0.000000    
    5  20.01090          20.30000        -22.70562         0.000000         0.000000         0.000000         0.000000         0.000000         0.000000         0.000000         0.000000         0.000000         0.000000    
 
TUBE  B  E  FLOW          Q [M^3/D]       DIAM.[M]        LEN.[M]        RE         RESIDENCE TIME [D]
   1   1   3   TURB.         7.08541        0.10000       10.00000     1169.11375        0.01108
   2   2   3   TURB.       -79.70395        0.10000       10.00000    13151.39649        0.00099
   3   3   4   TURB.       -51.80193        0.10000       10.00000     8547.47797        0.00152
   4   4   5   TURB.       -22.70562        0.10000       10.00000     3746.49676        0.00346
 

    BUDGET OF THE PIPE SYSTEM OF TIMESTEP    7 IN STRESS PERIOD    2
------------------------------------------------------------------------

  TOTAL SIMULATION TIME   170.000000000000      S
 
        CUMULATIVE VALUES (L**3)        RATES THIS TIME STEP (L**3/T)

            IN:                               IN:
     CONSTANT HEAD =   0.0000000          CONSTANT HEAD =   0.0000000    
   MATRIX EXCHANGE =   13532.824        MATRIX EXCHANGE =   79.603951    
     PIPE RECHARGE =   37.000000          PIPE RECHARGE =  0.10000000    
       PFP STORAGE =   0.0000000            PFP STORAGE =   0.0000000    

     CUMULATIVE IN =   13569.824               TOTAL IN =   79.703951    

           OUT:                               OUT:
     CONSTANT HEAD =   13569.824          CONSTANT HEAD =   79.703951    
   MATRIX EXCHANGE =   0.0000000        MATRIX EXCHANGE =   0.0000000    
     PIPE RECHARGE =   0.0000000          PIPE RECHARGE =   0.0000000    
       PFP STORAGE =   0.0000000            PFP STORAGE =   0.0000000    

    CUMULATIVE OUT =   13569.824              TOTAL OUT =   79.703951    

          IN - OUT = -0.88584784E-09           IN - OUT = -0.61675109E-11
     PERCENT ERROR = -0.00                PERCENT ERROR = -0.00


 
 ------------------------NODE WATER BUDGET-----------------------
  STRESS PERIOD           2  TIME STEP           7
 TOTAL SIMULATION TIME   170.000000000000     
 
 FLOW TO THE NODE IN M^3/D
 
 NODE     FIXED HEAD     RECHARGE        QWELL  MATRIX EXCH      STORAGE      TUBE_IN     TUBE_OUT         CADS     FHLQ(LQ)       CAUCHY   CAUCHY(LQ)          QLH     IN - OUT
    1     0.0000       0.0000       0.0000       7.0854       0.0000       0.0000      -7.0854       0.0000       0.0000       0.0000       0.0000       0.0000      0.33764E-10
    2    -79.704       0.0000       0.0000       0.0000       0.0000       79.704       0.0000       0.0000       0.0000       0.0000       0.0000       0.0000       0.0000    
    3     0.0000       0.0000       0.0000       20.817       0.0000       58.887      -79.704       0.0000       0.0000       0.0000       0.0000       0.0000     -0.33509E-10
    4     0.0000      0.10000       0.0000       28.996       0.0000       22.706      -51.802       0.0000       0.0000       0.0000       0.0000       0.0000     -0.25430E-10
    5     0.0000       0.0000       0.0000       22.706       0.0000       0.0000      -22.706       0.0000       0.0000       0.0000       0.0000       0.0000      0.19032E-10
     1 CALLS TO PCG ROUTINE FOR TIME STEP   7 IN STRESS PERIOD    2
     1 TOTAL ITERATIONS
 
 SOLVING FOR HEAD 
MODFLOW ITER.#  NEWTON-RAPHSON ITER.#   MAXIMUM NODE HEAD CHANGE
         1                   1                  0.0000000000
         1                   2                  0.0000000000
         1                   3                  0.0000000000


Solver Convergence Information:
                              HClose:  4.2810200E-12
                              RClose:  1.9150320E-8
                           L2-RClose:  3.7198567E-8
                         Rel-Vol-Err:  0.0
 
MODFLOW ITER.#  NEWTON-RAPHSON ITER.#   MAXIMUM NODE HEAD CHANGE
         1                   1                  0.0000000000
         1                   2                  0.0000000000
         1                   3                  0.0000000000

 NO OUTPUT CONTROL FOR STRESS PERIOD      2   TIME STEP     8
 
 
 CFPM1 CRITERION OF CONVERGENCE:     0.1000000E-05
 CFPM1 MAXIMUM NUMBER OF ITERATIONS:   100
 
 
 CFPM1 RESULTS +++++++++++++++++++++++++++++++++++++++++++++++++++++++
 
 STRESS PERIOD/TIME STEP           2           8
 
NUMBER OF NEWTON RHAPSON ITERATIONS:     3
 
 ------- RESULTS OF FLOW CALCULATION -------
 
NODE#  NODE HEAD[M]   MATRIX HEAD [M] EXCHANGE [M^3/D]      CAD STORAGE    CADS RECHARGE         PFPSFLOW  DIRECT RECHARGE            QWELL             FHLQ           CAUCHY        CAUCHY LQ              QLH             QFIX
    1  20.00729          20.09750        -7.085406         0.000000         0.000000         0.000000         0.000000         0.000000         0.000000         0.000000         0.000000         0.000000         0.000000    
    2  20.00    FIX      20.00000         0.000000         0.000000         0.000000         0.000000         0.000000         0.000000         0.000000         0.000000         0.000000         0.000000        -79.70395    
    3  20.00723          20.09558        -20.81661         0.000000         0.000000         0.000000         0.000000         0.000000         0.000000         0.000000         0.000000         0.000000         0.000000    
    4  20.01030          20.19490        -28.99631         0.000000         0.000000         0.000000        0.1000000         0.000000         0.000000         0.000000         0.000000         0.000000         0.000000    
    5  20.01090          20.30000        -22.70562         0.000000         0.000000         0.000000         0.000000         0.000000         0.000000         0.000000         0.000000         0.000000         0.000000    
 
TUBE  B  E  FLOW          Q [M^3/D]       DIAM.[M]        LEN.[M]        RE         RESIDENCE TIME [D]
   1   1   3   TURB.         7.08541        0.10000       10.00000     1169.11375        0.01108
   2   2   3   TURB.       -79.70395        0.10000       10.00000    13151.39649        0.00099
   3   3   4   TURB.       -51.80193        0.10000       10.00000     8547.47797        0.00152
   4   4   5   TURB.       -22.70562        0.10000       10.00000     3746.49676        0.00346
 

    BUDGET OF THE PIPE SYSTEM OF TIMESTEP    8 IN STRESS PERIOD    2
------------------------------------------------------------------------

  TOTAL SIMULATION TIME   180.000000000000      S
 
        CUMULATIVE VALUES (L**3)        RATES THIS TIME STEP (L**3/T)

            IN:                               IN:
     CONSTANT HEAD =   0.0000000          CONSTANT HEAD =   0.0000000    
   MATRIX EXCHANGE =   14328.863        MATRIX EXCHANGE =   79.603951    
     PIPE RECHARGE =   38.000000          PIPE RECHARGE =  0.10000000    
       PFP STORAGE =   0.0000000            PFP STORAGE =   0.0000000    

     CUMULATIVE IN =   14366.863               TOTAL IN =   79.703951    

           OUT:                               OUT:
     CONSTANT HEAD =   14366.863          CONSTANT HEAD =   79.703951    
   MATRIX EXCHANGE =   0.0000000        MATRIX EXCHANGE =   0.0000000    
     PIPE RECHARGE =   0.0000000          PIPE RECHARGE =   0.0000000    
       PFP STORAGE =   0.0000000            PFP STORAGE =   0.0000000    

    CUMULATIVE OUT =   14366.863              TOTAL OUT =   79.703951    

          IN - OUT = -0.86947693E-09           IN - OUT =  0.18474111E-11
     PERCENT ERROR = -0.00                PERCENT ERROR =  0.00


 
 ------------------------NODE WATER BUDGET-----------------------
  STRESS PERIOD           2  TIME STEP           8
 TOTAL SIMULATION TIME   180.000000000000     
 
 FLOW TO THE NODE IN M^3/D
 
 NODE     FIXED HEAD     RECHARGE        QWELL  MATRIX EXCH      STORAGE      TUBE_IN     TUBE_OUT         CADS     FHLQ(LQ)       CAUCHY   CAUCHY(LQ)          QLH     IN - OUT
    1     0.0000       0.0000       0.0000       7.0854       0.0000       0.0000      -7.0854       0.0000       0.0000       0.0000       0.0000       0.0000     -0.16461E-10
    2    -79.704       0.0000       0.0000       0.0000       0.0000       79.704       0.0000       0.0000       0.0000       0.0000       0.0000       0.0000       0.0000    
    3     0.0000       0.0000       0.0000       20.817       0.0000       58.887      -79.704       0.0000       0.0000       0.0000       0.0000       0.0000      0.62812E-11
    4     0.0000      0.10000       0.0000       28.996       0.0000       22.706      -51.802       0.0000       0.0000       0.0000       0.0000       0.0000      0.60595E-10
    5     0.0000       0.0000       0.0000       22.706       0.0000       0.0000      -22.706       0.0000       0.0000       0.0000       0.0000       0.0000     -0.48555E-10
     1 CALLS TO PCG ROUTINE FOR TIME STEP   8 IN STRESS PERIOD    2
     1 TOTAL ITERATIONS
 
 SOLVING FOR HEAD 
MODFLOW ITER.#  NEWTON-RAPHSON ITER.#   MAXIMUM NODE HEAD CHANGE
         1                   1                  0.0000000000
         1                   2                  0.0000000000
         1                   3                  0.0000000000


Solver Convergence Information:
                              HClose:  2.2879476E-12
                              RClose:  9.1386028E-9
                           L2-RClose:  1.7330347E-8
                         Rel-Vol-Err:  0.0
 
MODFLOW ITER.#  NEWTON-RAPHSON ITER.#   MAXIMUM NODE HEAD CHANGE
         1                   1                  0.0000000000
         1                   2                  0.0000000000
         1                   3                  0.0000000000

 NO OUTPUT CONTROL FOR STRESS PERIOD      2   TIME STEP     9
 
 
 CFPM1 CRITERION OF CONVERGENCE:     0.1000000E-05
 CFPM1 MAXIMUM NUMBER OF ITERATIONS:   100
 
 
 CFPM1 RESULTS +++++++++++++++++++++++++++++++++++++++++++++++++++++++
 
 STRESS PERIOD/TIME STEP           2           9
 
NUMBER OF NEWTON RHAPSON ITERATIONS:     3
 
 ------- RESULTS OF FLOW CALCULATION -------
 
NODE#  NODE HEAD[M]   MATRIX HEAD [M] EXCHANGE [M^3/D]      CAD STORAGE    CADS RECHARGE         PFPSFLOW  DIRECT RECHARGE            QWELL             FHLQ           CAUCHY        CAUCHY LQ              QLH             QFIX
    1  20.00729          20.09750        -7.085406         0.000000         0.000000         0.000000         0.000000         0.000000         0.000000         0.000000         0.000000         0.000000         0.000000    
    2  20.00    FIX      20.00000         0.000000         0.000000         0.000000         0.000000         0.000000         0.000000         0.000000         0.000000         0.000000         0.000000        -79.70395    
    3  20.00723          20.09558        -20.81661         0.000000         0.000000         0.000000         0.000000         0.000000         0.000000         0.000000         0.000000         0.000000         0.000000    
    4  20.01030          20.19490        -28.99631         0.000000         0.000000         0.000000        0.1000000         0.000000         0.000000         0.000000         0.000000         0.000000         0.000000    
    5  20.01090          20.30000        -22.70562         0.000000         0.000000         0.000000         0.000000         0.000000         0.000000         0.000000         0.000000         0.000000         0.000000    
 
TUBE  B  E  FLOW          Q [M^3/D]       DIAM.[M]        LEN.[M]        RE         RESIDENCE TIME [D]
   1   1   3   TURB.         7.08541        0.10000       10.00000     1169.11375        0.01108
   2   2   3   TURB.       -79.70395        0.10000       10.00000    13151.39649        0.00099
   3   3   4   TURB.       -51.80193        0.10000       10.00000     8547.47797        0.00152
   4   4   5   TURB.       -22.70562        0.10000       10.00000     3746.49676        0.00346
 

    BUDGET OF THE PIPE SYSTEM OF TIMESTEP    9 IN STRESS PERIOD    2
------------------------------------------------------------------------

  TOTAL SIMULATION TIME   190.000000000000      S
 
        CUMULATIVE VALUES (L**3)        RATES THIS TIME STEP (L**3/T)

            IN:                               IN:
     CONSTANT HEAD =   0.0000000          CONSTANT HEAD =   0.0000000    
   MATRIX EXCHANGE =   15124.903        MATRIX EXCHANGE =   79.603951    
     PIPE RECHARGE =   39.000000          PIPE RECHARGE =  0.10000000    
       PFP STORAGE =   0.0000000            PFP STORAGE =   0.0000000    

     CUMULATIVE IN =   15163.903               TOTAL IN =   79.703951    

           OUT:                               OUT:
     CONSTANT HEAD =   15163.903          CONSTANT HEAD =   79.703951    
   MATRIX EXCHANGE =   0.0000000        MATRIX EXCHANGE =   0.0000000    
     PIPE RECHARGE =   0.0000000          PIPE RECHARGE =   0.0000000    
       PFP STORAGE =   0.0000000            PFP STORAGE =   0.0000000    

    CUMULATIVE OUT =   15163.903              TOTAL OUT =   79.703951    

          IN - OUT = -0.88766683E-09           IN - OUT = -0.19468871E-11
     PERCENT ERROR = -0.00                PERCENT ERROR = -0.00


 
 ------------------------NODE WATER BUDGET-----------------------
  STRESS PERIOD           2  TIME STEP           9
 TOTAL SIMULATION TIME   190.000000000000     
 
 FLOW TO THE NODE IN M^3/D
 
 NODE     FIXED HEAD     RECHARGE        QWELL  MATRIX EXCH      STORAGE      TUBE_IN     TUBE_OUT         CADS     FHLQ(LQ)       CAUCHY   CAUCHY(LQ)          QLH     IN - OUT
    1     0.0000       0.0000       0.0000       7.0854       0.0000       0.0000      -7.0854       0.0000       0.0000       0.0000       0.0000       0.0000     -0.65292E-10
    2    -79.704       0.0000       0.0000       0.0000       0.0000       79.704       0.0000       0.0000       0.0000       0.0000       0.0000       0.0000       0.0000    
    3     0.0000       0.0000       0.0000       20.817       0.0000       58.887      -79.704       0.0000       0.0000       0.0000       0.0000       0.0000      0.45759E-10
    4     0.0000      0.10000       0.0000       28.996       0.0000       22.706      -51.802       0.0000       0.0000       0.0000       0.0000       0.0000      0.59451E-10
    5     0.0000       0.0000       0.0000       22.706       0.0000       0.0000      -22.706       0.0000       0.0000       0.0000       0.0000       0.0000     -0.41858E-10
     1 CALLS TO PCG ROUTINE FOR TIME STEP   9 IN STRESS PERIOD    2
     1 TOTAL ITERATIONS
 
 SOLVING FOR HEAD 
MODFLOW ITER.#  NEWTON-RAPHSON ITER.#   MAXIMUM NODE HEAD CHANGE
         1                   1                  0.0000000000
         1                   2                  0.0000000000
         1                   3                  0.0000000000


Solver Convergence Information:
                              HClose:  9.8410169E-13
                              RClose:  4.3655746E-9
                           L2-RClose:  8.5772894E-9
                         Rel-Vol-Err:  0.0
 
MODFLOW ITER.#  NEWTON-RAPHSON ITER.#   MAXIMUM NODE HEAD CHANGE
         1                   1                  0.0000000000
         1                   2                  0.0000000000
         1                   3                  0.0000000000

 NO OUTPUT CONTROL FOR STRESS PERIOD      2   TIME STEP    10
 
 
 CFPM1 CRITERION OF CONVERGENCE:     0.1000000E-05
 CFPM1 MAXIMUM NUMBER OF ITERATIONS:   100
 
 
 CFPM1 RESULTS +++++++++++++++++++++++++++++++++++++++++++++++++++++++
 
 STRESS PERIOD/TIME STEP           2          10
 
NUMBER OF NEWTON RHAPSON ITERATIONS:     3
 
 ------- RESULTS OF FLOW CALCULATION -------
 
NODE#  NODE HEAD[M]   MATRIX HEAD [M] EXCHANGE [M^3/D]      CAD STORAGE    CADS RECHARGE         PFPSFLOW  DIRECT RECHARGE            QWELL             FHLQ           CAUCHY        CAUCHY LQ              QLH             QFIX
    1  20.00729          20.09750        -7.085406         0.000000         0.000000         0.000000         0.000000         0.000000         0.000000         0.000000         0.000000         0.000000         0.000000    
    2  20.00    FIX      20.00000         0.000000         0.000000         0.000000         0.000000         0.000000         0.000000         0.000000         0.000000         0.000000         0.000000        -79.70395    
    3  20.00723          20.09558        -20.81661         0.000000         0.000000         0.000000         0.000000         0.000000         0.000000         0.000000         0.000000         0.000000         0.000000    
    4  20.01030          20.19490        -28.99631         0.000000         0.000000         0.000000        0.1000000         0.000000         0.000000         0.000000         0.000000         0.000000         0.000000    
    5  20.01090          20.30000        -22.70562         0.000000         0.000000         0.000000         0.000000         0.000000         0.000000         0.000000         0.000000         0.000000         0.000000    
 
TUBE  B  E  FLOW          Q [M^3/D]       DIAM.[M]        LEN.[M]        RE         RESIDENCE TIME [D]
   1   1   3   TURB.         7.08541        0.10000       10.00000     1169.11375        0.01108
   2   2   3   TURB.       -79.70395        0.10000       10.00000    13151.39649        0.00099
   3   3   4   TURB.       -51.80193        0.10000       10.00000     8547.47797        0.00152
   4   4   5   TURB.       -22.70562        0.10000       10.00000     3746.49676        0.00346
 

    BUDGET OF THE PIPE SYSTEM OF TIMESTEP   10 IN STRESS PERIOD    2
------------------------------------------------------------------------

  TOTAL SIMULATION TIME   200.000000000000      S
 
        CUMULATIVE VALUES (L**3)        RATES THIS TIME STEP (L**3/T)

            IN:                               IN:
     CONSTANT HEAD =   0.0000000          CONSTANT HEAD =   0.0000000    
   MATRIX EXCHANGE =   15920.942        MATRIX EXCHANGE =   79.603951    
     PIPE RECHARGE =   40.000000          PIPE RECHARGE =  0.10000000    
       PFP STORAGE =   0.0000000            PFP STORAGE =   0.0000000    

     CUMULATIVE IN =   15960.942               TOTAL IN =   79.703951    

           OUT:                               OUT:
     CONSTANT HEAD =   15960.942          CONSTANT HEAD =   79.703951    
   MATRIX EXCHANGE =   0.0000000        MATRIX EXCHANGE =   0.0000000    
     PIPE RECHARGE =   0.0000000          PIPE RECHARGE =   0.0000000    
       PFP STORAGE =   0.0000000            PFP STORAGE =   0.0000000    

    CUMULATIVE OUT =   15960.942              TOTAL OUT =   79.703951    

          IN - OUT = -0.90767571E-09           IN - OUT = -0.21458391E-11
     PERCENT ERROR = -0.00                PERCENT ERROR = -0.00


 
 ------------------------NODE WATER BUDGET-----------------------
  STRESS PERIOD           2  TIME STEP          10
 TOTAL SIMULATION TIME   200.000000000000     
 
 FLOW TO THE NODE IN M^3/D
 
 NODE     FIXED HEAD     RECHARGE        QWELL  MATRIX EXCH      STORAGE      TUBE_IN     TUBE_OUT         CADS     FHLQ(LQ)       CAUCHY   CAUCHY(LQ)          QLH     IN - OUT
    1     0.0000       0.0000       0.0000       7.0854       0.0000       0.0000      -7.0854       0.0000       0.0000       0.0000       0.0000       0.0000     -0.77848E-10
    2    -79.704       0.0000       0.0000       0.0000       0.0000       79.704       0.0000       0.0000       0.0000       0.0000       0.0000       0.0000       0.0000    
    3     0.0000       0.0000       0.0000       20.817       0.0000       58.887      -79.704       0.0000       0.0000       0.0000       0.0000       0.0000      0.70301E-10
    4     0.0000      0.10000       0.0000       28.996       0.0000       22.706      -51.802       0.0000       0.0000       0.0000       0.0000       0.0000     -0.21160E-10
    5     0.0000       0.0000       0.0000       22.706       0.0000       0.0000      -22.706       0.0000       0.0000       0.0000       0.0000       0.0000      0.26567E-10
     1 CALLS TO PCG ROUTINE FOR TIME STEP  10 IN STRESS PERIOD    2
     1 TOTAL ITERATIONS

 MAXIMUM HEAD CHANGE FOR EACH ITERATION (1 INDICATES THE FIRST INNER ITERATION):

    HEAD CHANGE    HEAD CHANGE    HEAD CHANGE    HEAD CHANGE    HEAD CHANGE 
   LAYER,ROW,COL  LAYER,ROW,COL  LAYER,ROW,COL  LAYER,ROW,COL  LAYER,ROW,COL
 ---------------------------------------------------------------------------
  1  0.9851E-12
   (  3,  2,  3)

 MAXIMUM RESIDUAL FOR EACH ITERATION (1 INDICATES THE FIRST INNER ITERATION):

    RESIDUAL       RESIDUAL       RESIDUAL       RESIDUAL       RESIDUAL    
   LAYER,ROW,COL  LAYER,ROW,COL  LAYER,ROW,COL  LAYER,ROW,COL  LAYER,ROW,COL
 ---------------------------------------------------------------------------
  1  0.4383E-08
   (  1,  3,  2)





  -------------------------------------------------------------------------------------
  VOLUMETRIC BUDGET FOR ENTIRE MODEL AT END OF TIME STEP   10 IN STRESS PERIOD      2
  -------------------------------------------------------------------------------------

     CUMULATIVE VOLUMES      L**3       RATES FOR THIS TIME STEP      L**3/T
     ------------------                 ------------------------

           IN:                                      IN:
           ---                                      ---
             STORAGE =       2.7877E-06               STORAGE =       3.4608E-16
       CONSTANT HEAD =      250133.7639         CONSTANT HEAD =        1251.0038
            RECHARGE =         280.0000              RECHARGE =           0.7000
               PIPES =           0.0000                 PIPES =           0.0000

            TOTAL IN =      250413.7639              TOTAL IN =        1251.7038

          OUT:                                     OUT:
          ----                                     ----
             STORAGE =       6.6261E-12               STORAGE =       1.1150E-15
       CONSTANT HEAD =      234492.8211         CONSTANT HEAD =        1172.0999
            RECHARGE =           0.0000              RECHARGE =           0.0000
               PIPES =       15920.9424                 PIPES =          79.6040

           TOTAL OUT =      250413.7634             TOTAL OUT =        1251.7038

            IN - OUT =       5.1190E-04              IN - OUT =      -4.4654E-09

 PERCENT DISCREPANCY =           0.00     PERCENT DISCREPANCY =          -0.00


          TIME SUMMARY AT END OF TIME STEP    10 IN STRESS PERIOD      2
                    SECONDS     MINUTES      HOURS       DAYS        YEARS
                    -----------------------------------------------------------
   TIME STEP LENGTH 8.64000E+05  14400.      240.00      10.000     2.73785E-02
 STRESS PERIOD TIME 8.64000E+06 1.44000E+05  2400.0      100.00     0.27379    
         TOTAL TIME 1.72800E+07 2.88000E+05  4800.0      200.00     0.54757    
 
1
                            STRESS PERIOD NO.      3, LENGTH =   100.0000    
                            -----------------------------------------------

                              NUMBER OF TIME STEPS =    10

                               MULTIPLIER FOR DELT =     1.000

                            INITIAL TIME STEP SIZE =   10.00000    

                 RECHARGE =  2.000000E-03
 
 CFP1RCH1RP SUBROUTINE READING FROM UNIT           14
  REUSING DATA FROM LAST STRESS PERIOD
 DATA FOR QCONDIR
 0.0     0.0     0.0     1.0     0.0   
 
 SOLVING FOR HEAD 
MODFLOW ITER.#  NEWTON-RAPHSON ITER.#   MAXIMUM NODE HEAD CHANGE
         1                   1                  0.0000269849
         1                   2                  0.0000000171
         1                   3                  0.0000000000
MODFLOW ITER.#  NEWTON-RAPHSON ITER.#   MAXIMUM NODE HEAD CHANGE
         2                   1                  0.0000025211
         2                   2                  0.0000000002
         2                   3                  0.0000000000
MODFLOW ITER.#  NEWTON-RAPHSON ITER.#   MAXIMUM NODE HEAD CHANGE
         3                   1                  0.0000000075
         3                   2                  0.0000000000
         3                   3                  0.0000000000


Solver Convergence Information:
                              HClose:  1.3534454E-9
                              RClose:  4.9135997E-6
                           L2-RClose:  1.0856233E-5
                         Rel-Vol-Err:  0.0
 
MODFLOW ITER.#  NEWTON-RAPHSON ITER.#   MAXIMUM NODE HEAD CHANGE
         3                   1                  0.0000000000
         3                   2                  0.0000000000
         3                   3                  0.0000000000

 OUTPUT CONTROL FOR STRESS PERIOD      3   TIME STEP     1
    PRINT HEAD FOR ALL LAYERS
    SAVE HEAD FOR ALL LAYERS
    SAVE BUDGET
 UBDSV1 SAVING "         STORAGE" ON UNIT 50 AT TIME STEP 1, STRESS PERIOD 3
 UBDSV2 SAVING "   CONSTANT HEAD" ON UNIT 50 AT TIME STEP 1, STRESS PERIOD 3
 UBDSV1 SAVING "FLOW RIGHT FACE " ON UNIT 50 AT TIME STEP 1, STRESS PERIOD 3
 UBDSV1 SAVING "FLOW FRONT FACE " ON UNIT 50 AT TIME STEP 1, STRESS PERIOD 3
 UBDSV1 SAVING "FLOW LOWER FACE " ON UNIT 50 AT TIME STEP 1, STRESS PERIOD 3
 UBDSV3 SAVING "        RECHARGE" ON UNIT 50 AT TIME STEP 1, STRESS PERIOD 3
 
 
 CFPM1 CRITERION OF CONVERGENCE:     0.1000000E-05
 CFPM1 MAXIMUM NUMBER OF ITERATIONS:   100
 
 
 CFPM1 RESULTS +++++++++++++++++++++++++++++++++++++++++++++++++++++++
 
 STRESS PERIOD/TIME STEP           3           1
 
NUMBER OF NEWTON RHAPSON ITERATIONS:     3
 
 ------- RESULTS OF FLOW CALCULATION -------
 
NODE#  NODE HEAD[M]   MATRIX HEAD [M] EXCHANGE [M^3/D]      CAD STORAGE    CADS RECHARGE         PFPSFLOW  DIRECT RECHARGE            QWELL             FHLQ           CAUCHY        CAUCHY LQ              QLH             QFIX
    1  20.00731          20.09754        -7.086594         0.000000         0.000000         0.000000         0.000000         0.000000         0.000000         0.000000         0.000000         0.000000         0.000000    
    2  20.00    FIX      20.00000         0.000000         0.000000         0.000000         0.000000         0.000000         0.000000         0.000000         0.000000         0.000000         0.000000        -79.80472    
    3  20.00725          20.09561        -20.81968         0.000000         0.000000         0.000000         0.000000         0.000000         0.000000         0.000000         0.000000         0.000000         0.000000    
    4  20.01033          20.19492        -28.99514         0.000000         0.000000         0.000000        0.2000000         0.000000         0.000000         0.000000         0.000000         0.000000         0.000000    
    5  20.01093          20.30000        -22.70331         0.000000         0.000000         0.000000         0.000000         0.000000         0.000000         0.000000         0.000000         0.000000         0.000000    
 
TUBE  B  E  FLOW          Q [M^3/D]       DIAM.[M]        LEN.[M]        RE         RESIDENCE TIME [D]
   1   1   3   TURB.         7.08659        0.10000       10.00000     1169.30971        0.01108
   2   2   3   TURB.       -79.80472        0.10000       10.00000    13168.02366        0.00098
   3   3   4   TURB.       -51.89844        0.10000       10.00000     8563.40265        0.00151
   4   4   5   TURB.       -22.70331        0.10000       10.00000     3746.11562        0.00346
 

    BUDGET OF THE PIPE SYSTEM OF TIMESTEP    1 IN STRESS PERIOD    3
------------------------------------------------------------------------

  TOTAL SIMULATION TIME   210.000000000000      S
 
        CUMULATIVE VALUES (L**3)        RATES THIS TIME STEP (L**3/T)

            IN:                               IN:
     CONSTANT HEAD =   0.0000000          CONSTANT HEAD =   0.0000000    
   MATRIX EXCHANGE =   16716.990        MATRIX EXCHANGE =   79.604719    
     PIPE RECHARGE =   42.000000          PIPE RECHARGE =  0.20000000    
       PFP STORAGE =   0.0000000            PFP STORAGE =   0.0000000    

     CUMULATIVE IN =   16758.990               TOTAL IN =   79.804719    

           OUT:                               OUT:
     CONSTANT HEAD =   16758.990          CONSTANT HEAD =   79.804719    
   MATRIX EXCHANGE =   0.0000000        MATRIX EXCHANGE =   0.0000000    
     PIPE RECHARGE =   0.0000000          PIPE RECHARGE =   0.0000000    
       PFP STORAGE =   0.0000000            PFP STORAGE =   0.0000000    

    CUMULATIVE OUT =   16758.990              TOTAL OUT =   79.804719    

          IN - OUT = -0.86947693E-09           IN - OUT =  0.38795633E-11
     PERCENT ERROR = -0.00                PERCENT ERROR =  0.00


 
 ------------------------NODE WATER BUDGET-----------------------
  STRESS PERIOD           3  TIME STEP           1
 TOTAL SIMULATION TIME   210.000000000000     
 
 FLOW TO THE NODE IN M^3/D
 
 NODE     FIXED HEAD     RECHARGE        QWELL  MATRIX EXCH      STORAGE      TUBE_IN     TUBE_OUT         CADS     FHLQ(LQ)       CAUCHY   CAUCHY(LQ)          QLH     IN - OUT
    1     0.0000       0.0000       0.0000       7.0866       0.0000       0.0000      -7.0866       0.0000       0.0000       0.0000       0.0000       0.0000      0.27545E-10
    2    -79.805       0.0000       0.0000       0.0000       0.0000       79.805       0.0000       0.0000       0.0000       0.0000       0.0000       0.0000       0.0000    
    3     0.0000       0.0000       0.0000       20.820       0.0000       58.985      -79.805       0.0000       0.0000       0.0000       0.0000       0.0000     -0.20478E-10
    4     0.0000      0.20000       0.0000       28.995       0.0000       22.703      -51.898       0.0000       0.0000       0.0000       0.0000       0.0000     -0.15234E-10
    5     0.0000       0.0000       0.0000       22.703       0.0000       0.0000      -22.703       0.0000       0.0000       0.0000       0.0000       0.0000      0.12040E-10


     3 CALLS TO PCG ROUTINE FOR TIME STEP   1 IN STRESS PERIOD    3
    11 TOTAL ITERATIONS
1
              HEAD IN LAYER   1 AT END OF TIME STEP   1 IN STRESS PERIOD    3
  ---------------------------------------------------------------------------

            1           2           3           4
 ................................................
   1    20.00       20.10       20.20       20.30    
   2    20.00       20.10       20.20       20.30    
   3    20.00       20.10       20.19       20.30    
   4    20.00       20.10       20.20       20.30    
1
              HEAD IN LAYER   2 AT END OF TIME STEP   1 IN STRESS PERIOD    3
  ---------------------------------------------------------------------------

            1           2           3           4
 ................................................
   1    20.00       20.10       20.20       20.30    
   2    20.00       20.10       20.20       20.30    
   3    20.00       20.10       20.20       20.30    
   4    20.00       20.10       20.20       20.30    
1
              HEAD IN LAYER   3 AT END OF TIME STEP   1 IN STRESS PERIOD    3
  ---------------------------------------------------------------------------

            1           2           3           4
 ................................................
   1    20.00       20.10       20.20       20.30    
   2    20.00       20.10       20.20       20.30    
   3    20.00       20.10       20.20       20.30    
   4    20.00       20.10       20.20       20.30    

 HEAD WILL BE SAVED ON UNIT   51 AT END OF TIME STEP     1 IN STRESS PERIOD      3

          TIME SUMMARY AT END OF TIME STEP     1 IN STRESS PERIOD      3
                    SECONDS     MINUTES      HOURS       DAYS        YEARS
                    -----------------------------------------------------------
   TIME STEP LENGTH 8.64000E+05  14400.      240.00      10.000     2.73785E-02
 STRESS PERIOD TIME 8.64000E+05  14400.      240.00      10.000     2.73785E-02
         TOTAL TIME 1.81440E+07 3.02400E+05  5040.0      210.00     0.57495    
 
 
 SOLVING FOR HEAD 
MODFLOW ITER.#  NEWTON-RAPHSON ITER.#   MAXIMUM NODE HEAD CHANGE
         1                   1                  0.0000000000
         1                   2                  0.0000000000
         1                   3                  0.0000000000


Solver Convergence Information:
                              HClose:  5.1879212E-10
                              RClose:  2.3430330E-6
                           L2-RClose:  4.6003575E-6
                         Rel-Vol-Err:  0.0
 
MODFLOW ITER.#  NEWTON-RAPHSON ITER.#   MAXIMUM NODE HEAD CHANGE
         1                   1                  0.0000000000
         1                   2                  0.0000000000
         1                   3                  0.0000000000

 NO OUTPUT CONTROL FOR STRESS PERIOD      3   TIME STEP     2
 
 
 CFPM1 CRITERION OF CONVERGENCE:     0.1000000E-05
 CFPM1 MAXIMUM NUMBER OF ITERATIONS:   100
 
 
 CFPM1 RESULTS +++++++++++++++++++++++++++++++++++++++++++++++++++++++
 
 STRESS PERIOD/TIME STEP           3           2
 
NUMBER OF NEWTON RHAPSON ITERATIONS:     3
 
 ------- RESULTS OF FLOW CALCULATION -------
 
NODE#  NODE HEAD[M]   MATRIX HEAD [M] EXCHANGE [M^3/D]      CAD STORAGE    CADS RECHARGE         PFPSFLOW  DIRECT RECHARGE            QWELL             FHLQ           CAUCHY        CAUCHY LQ              QLH             QFIX
    1  20.00731          20.09754        -7.086594         0.000000         0.000000         0.000000         0.000000         0.000000         0.000000         0.000000         0.000000         0.000000         0.000000    
    2  20.00    FIX      20.00000         0.000000         0.000000         0.000000         0.000000         0.000000         0.000000         0.000000         0.000000         0.000000         0.000000        -79.80472    
    3  20.00725          20.09561        -20.81968         0.000000         0.000000         0.000000         0.000000         0.000000         0.000000         0.000000         0.000000         0.000000         0.000000    
    4  20.01033          20.19492        -28.99514         0.000000         0.000000         0.000000        0.2000000         0.000000         0.000000         0.000000         0.000000         0.000000         0.000000    
    5  20.01093          20.30000        -22.70331         0.000000         0.000000         0.000000         0.000000         0.000000         0.000000         0.000000         0.000000         0.000000         0.000000    
 
TUBE  B  E  FLOW          Q [M^3/D]       DIAM.[M]        LEN.[M]        RE         RESIDENCE TIME [D]
   1   1   3   TURB.         7.08659        0.10000       10.00000     1169.30971        0.01108
   2   2   3   TURB.       -79.80472        0.10000       10.00000    13168.02366        0.00098
   3   3   4   TURB.       -51.89844        0.10000       10.00000     8563.40265        0.00151
   4   4   5   TURB.       -22.70331        0.10000       10.00000     3746.11562        0.00346
 

    BUDGET OF THE PIPE SYSTEM OF TIMESTEP    2 IN STRESS PERIOD    3
------------------------------------------------------------------------

  TOTAL SIMULATION TIME   220.000000000000      S
 
        CUMULATIVE VALUES (L**3)        RATES THIS TIME STEP (L**3/T)

            IN:                               IN:
     CONSTANT HEAD =   0.0000000          CONSTANT HEAD =   0.0000000    
   MATRIX EXCHANGE =   17513.037        MATRIX EXCHANGE =   79.604719    
     PIPE RECHARGE =   44.000000          PIPE RECHARGE =  0.20000000    
       PFP STORAGE =   0.0000000            PFP STORAGE =   0.0000000    

     CUMULATIVE IN =   17557.037               TOTAL IN =   79.804719    

           OUT:                               OUT:
     CONSTANT HEAD =   17557.037          CONSTANT HEAD =   79.804719    
   MATRIX EXCHANGE =   0.0000000        MATRIX EXCHANGE =   0.0000000    
     PIPE RECHARGE =   0.0000000          PIPE RECHARGE =   0.0000000    
       PFP STORAGE =   0.0000000            PFP STORAGE =   0.0000000    

    CUMULATIVE OUT =   17557.037              TOTAL OUT =   79.804719    

          IN - OUT = -0.91677066E-09           IN - OUT = -0.51301186E-11
     PERCENT ERROR = -0.00                PERCENT ERROR = -0.00


 
 ------------------------NODE WATER BUDGET-----------------------
  STRESS PERIOD           3  TIME STEP           2
 TOTAL SIMULATION TIME   220.000000000000     
 
 FLOW TO THE NODE IN M^3/D
 
 NODE     FIXED HEAD     RECHARGE        QWELL  MATRIX EXCH      STORAGE      TUBE_IN     TUBE_OUT         CADS     FHLQ(LQ)       CAUCHY   CAUCHY(LQ)          QLH     IN - OUT
    1     0.0000       0.0000       0.0000       7.0866       0.0000       0.0000      -7.0866       0.0000       0.0000       0.0000       0.0000       0.0000      0.13469E-09
    2    -79.805       0.0000       0.0000       0.0000       0.0000       79.805       0.0000       0.0000       0.0000       0.0000       0.0000       0.0000       0.0000    
    3     0.0000       0.0000       0.0000       20.820       0.0000       58.985      -79.805       0.0000       0.0000       0.0000       0.0000       0.0000     -0.16266E-09
    4     0.0000      0.20000       0.0000       28.995       0.0000       22.703      -51.898       0.0000       0.0000       0.0000       0.0000       0.0000      0.66755E-10
    5     0.0000       0.0000       0.0000       22.703       0.0000       0.0000      -22.703       0.0000       0.0000       0.0000       0.0000       0.0000     -0.43919E-10
     1 CALLS TO PCG ROUTINE FOR TIME STEP   2 IN STRESS PERIOD    3
     1 TOTAL ITERATIONS
 
 SOLVING FOR HEAD 
MODFLOW ITER.#  NEWTON-RAPHSON ITER.#   MAXIMUM NODE HEAD CHANGE
         1                   1                  0.0000000000
         1                   2                  0.0000000000
         1                   3                  0.0000000000


Solver Convergence Information:
                              HClose:  2.6749092E-10
                              RClose:  1.1238735E-6
                           L2-RClose:  2.2581370E-6
                         Rel-Vol-Err:  0.0
 
MODFLOW ITER.#  NEWTON-RAPHSON ITER.#   MAXIMUM NODE HEAD CHANGE
         1                   1                  0.0000000000
         1                   2                  0.0000000000
         1                   3                  0.0000000000

 NO OUTPUT CONTROL FOR STRESS PERIOD      3   TIME STEP     3
 
 
 CFPM1 CRITERION OF CONVERGENCE:     0.1000000E-05
 CFPM1 MAXIMUM NUMBER OF ITERATIONS:   100
 
 
 CFPM1 RESULTS +++++++++++++++++++++++++++++++++++++++++++++++++++++++
 
 STRESS PERIOD/TIME STEP           3           3
 
NUMBER OF NEWTON RHAPSON ITERATIONS:     3
 
 ------- RESULTS OF FLOW CALCULATION -------
 
NODE#  NODE HEAD[M]   MATRIX HEAD [M] EXCHANGE [M^3/D]      CAD STORAGE    CADS RECHARGE         PFPSFLOW  DIRECT RECHARGE            QWELL             FHLQ           CAUCHY        CAUCHY LQ              QLH             QFIX
    1  20.00731          20.09754        -7.086594         0.000000         0.000000         0.000000         0.000000         0.000000         0.000000         0.000000         0.000000         0.000000         0.000000    
    2  20.00    FIX      20.00000         0.000000         0.000000         0.000000         0.000000         0.000000         0.000000         0.000000         0.000000         0.000000         0.000000        -79.80472    
    3  20.00725          20.09561        -20.81968         0.000000         0.000000         0.000000         0.000000         0.000000         0.000000         0.000000         0.000000         0.000000         0.000000    
    4  20.01033          20.19492        -28.99514         0.000000         0.000000         0.000000        0.2000000         0.000000         0.000000         0.000000         0.000000         0.000000         0.000000    
    5  20.01093          20.30000        -22.70331         0.000000         0.000000         0.000000         0.000000         0.000000         0.000000         0.000000         0.000000         0.000000         0.000000    
 
TUBE  B  E  FLOW          Q [M^3/D]       DIAM.[M]        LEN.[M]        RE         RESIDENCE TIME [D]
   1   1   3   TURB.         7.08659        0.10000       10.00000     1169.30971        0.01108
   2   2   3   TURB.       -79.80472        0.10000       10.00000    13168.02366        0.00098
   3   3   4   TURB.       -51.89844        0.10000       10.00000     8563.40265        0.00151
   4   4   5   TURB.       -22.70331        0.10000       10.00000     3746.11562        0.00346
 

    BUDGET OF THE PIPE SYSTEM OF TIMESTEP    3 IN STRESS PERIOD    3
------------------------------------------------------------------------

  TOTAL SIMULATION TIME   230.000000000000      S
 
        CUMULATIVE VALUES (L**3)        RATES THIS TIME STEP (L**3/T)

            IN:                               IN:
     CONSTANT HEAD =   0.0000000          CONSTANT HEAD =   0.0000000    
   MATRIX EXCHANGE =   18309.084        MATRIX EXCHANGE =   79.604719    
     PIPE RECHARGE =   46.000000          PIPE RECHARGE =  0.20000000    
       PFP STORAGE =   0.0000000            PFP STORAGE =   0.0000000    

     CUMULATIVE IN =   18355.084               TOTAL IN =   79.804719    

           OUT:                               OUT:
     CONSTANT HEAD =   18355.084          CONSTANT HEAD =   79.804719    
   MATRIX EXCHANGE =   0.0000000        MATRIX EXCHANGE =   0.0000000    
     PIPE RECHARGE =   0.0000000          PIPE RECHARGE =   0.0000000    
       PFP STORAGE =   0.0000000            PFP STORAGE =   0.0000000    

    CUMULATIVE OUT =   18355.084              TOTAL OUT =   79.804719    

          IN - OUT = -0.92768460E-09           IN - OUT = -0.12789769E-11
     PERCENT ERROR = -0.00                PERCENT ERROR = -0.00


 
 ------------------------NODE WATER BUDGET-----------------------
  STRESS PERIOD           3  TIME STEP           3
 TOTAL SIMULATION TIME   230.000000000000     
 
 FLOW TO THE NODE IN M^3/D
 
 NODE     FIXED HEAD     RECHARGE        QWELL  MATRIX EXCH      STORAGE      TUBE_IN     TUBE_OUT         CADS     FHLQ(LQ)       CAUCHY   CAUCHY(LQ)          QLH     IN - OUT
    1     0.0000       0.0000       0.0000       7.0866       0.0000       0.0000      -7.0866       0.0000       0.0000       0.0000       0.0000       0.0000     -0.14590E-10
    2    -79.805       0.0000       0.0000       0.0000       0.0000       79.805       0.0000       0.0000       0.0000       0.0000       0.0000       0.0000       0.0000    
    3     0.0000       0.0000       0.0000       20.820       0.0000       58.985      -79.805       0.0000       0.0000       0.0000       0.0000       0.0000     -0.92371E-12
    4     0.0000      0.20000       0.0000       28.995       0.0000       22.703      -51.898       0.0000       0.0000       0.0000       0.0000       0.0000      0.22524E-10
    5     0.0000       0.0000       0.0000       22.703       0.0000       0.0000      -22.703       0.0000       0.0000       0.0000       0.0000       0.0000     -0.82849E-11
     1 CALLS TO PCG ROUTINE FOR TIME STEP   3 IN STRESS PERIOD    3
     1 TOTAL ITERATIONS
 
 SOLVING FOR HEAD 
MODFLOW ITER.#  NEWTON-RAPHSON ITER.#   MAXIMUM NODE HEAD CHANGE
         1                   1                  0.0000000000
         1                   2                  0.0000000000
         1                   3                  0.0000000000


Solver Convergence Information:
                              HClose:  1.2034107E-10
                              RClose:  5.2794348E-7
                           L2-RClose:  9.8552238E-7
                         Rel-Vol-Err:  0.0
 
MODFLOW ITER.#  NEWTON-RAPHSON ITER.#   MAXIMUM NODE HEAD CHANGE
         1                   1                  0.0000000000
         1                   2                  0.0000000000
         1                   3                  0.0000000000

 NO OUTPUT CONTROL FOR STRESS PERIOD      3   TIME STEP     4
 
 
 CFPM1 CRITERION OF CONVERGENCE:     0.1000000E-05
 CFPM1 MAXIMUM NUMBER OF ITERATIONS:   100
 
 
 CFPM1 RESULTS +++++++++++++++++++++++++++++++++++++++++++++++++++++++
 
 STRESS PERIOD/TIME STEP           3           4
 
NUMBER OF NEWTON RHAPSON ITERATIONS:     3
 
 ------- RESULTS OF FLOW CALCULATION -------
 
NODE#  NODE HEAD[M]   MATRIX HEAD [M] EXCHANGE [M^3/D]      CAD STORAGE    CADS RECHARGE         PFPSFLOW  DIRECT RECHARGE            QWELL             FHLQ           CAUCHY        CAUCHY LQ              QLH             QFIX
    1  20.00731          20.09754        -7.086594         0.000000         0.000000         0.000000         0.000000         0.000000         0.000000         0.000000         0.000000         0.000000         0.000000    
    2  20.00    FIX      20.00000         0.000000         0.000000         0.000000         0.000000         0.000000         0.000000         0.000000         0.000000         0.000000         0.000000        -79.80472    
    3  20.00725          20.09561        -20.81968         0.000000         0.000000         0.000000         0.000000         0.000000         0.000000         0.000000         0.000000         0.000000         0.000000    
    4  20.01033          20.19492        -28.99514         0.000000         0.000000         0.000000        0.2000000         0.000000         0.000000         0.000000         0.000000         0.000000         0.000000    
    5  20.01093          20.30000        -22.70331         0.000000         0.000000         0.000000         0.000000         0.000000         0.000000         0.000000         0.000000         0.000000         0.000000    
 
TUBE  B  E  FLOW          Q [M^3/D]       DIAM.[M]        LEN.[M]        RE         RESIDENCE TIME [D]
   1   1   3   TURB.         7.08659        0.10000       10.00000     1169.30971        0.01108
   2   2   3   TURB.       -79.80472        0.10000       10.00000    13168.02366        0.00098
   3   3   4   TURB.       -51.89844        0.10000       10.00000     8563.40265        0.00151
   4   4   5   TURB.       -22.70331        0.10000       10.00000     3746.11562        0.00346
 

    BUDGET OF THE PIPE SYSTEM OF TIMESTEP    4 IN STRESS PERIOD    3
------------------------------------------------------------------------

  TOTAL SIMULATION TIME   240.000000000000      S
 
        CUMULATIVE VALUES (L**3)        RATES THIS TIME STEP (L**3/T)

            IN:                               IN:
     CONSTANT HEAD =   0.0000000          CONSTANT HEAD =   0.0000000    
   MATRIX EXCHANGE =   19105.131        MATRIX EXCHANGE =   79.604719    
     PIPE RECHARGE =   48.000000          PIPE RECHARGE =  0.20000000    
       PFP STORAGE =   0.0000000            PFP STORAGE =   0.0000000    

     CUMULATIVE IN =   19153.131               TOTAL IN =   79.804719    

           OUT:                               OUT:
     CONSTANT HEAD =   19153.131          CONSTANT HEAD =   79.804719    
   MATRIX EXCHANGE =   0.0000000        MATRIX EXCHANGE =   0.0000000    
     PIPE RECHARGE =   0.0000000          PIPE RECHARGE =   0.0000000    
       PFP STORAGE =   0.0000000            PFP STORAGE =   0.0000000    

    CUMULATIVE OUT =   19153.131              TOTAL OUT =   79.804719    

          IN - OUT = -0.86583896E-09           IN - OUT =  0.64233063E-11
     PERCENT ERROR = -0.00                PERCENT ERROR =  0.00


 
 ------------------------NODE WATER BUDGET-----------------------
  STRESS PERIOD           3  TIME STEP           4
 TOTAL SIMULATION TIME   240.000000000000     
 
 FLOW TO THE NODE IN M^3/D
 
 NODE     FIXED HEAD     RECHARGE        QWELL  MATRIX EXCH      STORAGE      TUBE_IN     TUBE_OUT         CADS     FHLQ(LQ)       CAUCHY   CAUCHY(LQ)          QLH     IN - OUT
    1     0.0000       0.0000       0.0000       7.0866       0.0000       0.0000      -7.0866       0.0000       0.0000       0.0000       0.0000       0.0000     -0.38296E-10
    2    -79.805       0.0000       0.0000       0.0000       0.0000       79.805       0.0000       0.0000       0.0000       0.0000       0.0000       0.0000       0.0000    
    3     0.0000       0.0000       0.0000       20.820       0.0000       58.985      -79.805       0.0000       0.0000       0.0000       0.0000       0.0000      0.54911E-10
    4     0.0000      0.20000       0.0000       28.995       0.0000       22.703      -51.898       0.0000       0.0000       0.0000       0.0000       0.0000     -0.12712E-10
    5     0.0000       0.0000       0.0000       22.703       0.0000       0.0000      -22.703       0.0000       0.0000       0.0000       0.0000       0.0000      0.25082E-11
     1 CALLS TO PCG ROUTINE FOR TIME STEP   4 IN STRESS PERIOD    3
     1 TOTAL ITERATIONS
 
 SOLVING FOR HEAD 
MODFLOW ITER.#  NEWTON-RAPHSON ITER.#   MAXIMUM NODE HEAD CHANGE
         1                   1                  0.0000000000
         1                   2                  0.0000000000
         1                   3                  0.0000000000


Solver Convergence Information:
                              HClose:  5.7379879E-11
                              RClose:  2.5331974E-7
                           L2-RClose:  4.8791981E-7
                         Rel-Vol-Err:  0.0
 
MODFLOW ITER.#  NEWTON-RAPHSON ITER.#   MAXIMUM NODE HEAD CHANGE
         1                   1                  0.0000000000
         1                   2                  0.0000000000
         1                   3                  0.0000000000

 NO OUTPUT CONTROL FOR STRESS PERIOD      3   TIME STEP     5
 
 
 CFPM1 CRITERION OF CONVERGENCE:     0.1000000E-05
 CFPM1 MAXIMUM NUMBER OF ITERATIONS:   100
 
 
 CFPM1 RESULTS +++++++++++++++++++++++++++++++++++++++++++++++++++++++
 
 STRESS PERIOD/TIME STEP           3           5
 
NUMBER OF NEWTON RHAPSON ITERATIONS:     3
 
 ------- RESULTS OF FLOW CALCULATION -------
 
NODE#  NODE HEAD[M]   MATRIX HEAD [M] EXCHANGE [M^3/D]      CAD STORAGE    CADS RECHARGE         PFPSFLOW  DIRECT RECHARGE            QWELL             FHLQ           CAUCHY        CAUCHY LQ              QLH             QFIX
    1  20.00731          20.09754        -7.086594         0.000000         0.000000         0.000000         0.000000         0.000000         0.000000         0.000000         0.000000         0.000000         0.000000    
    2  20.00    FIX      20.00000         0.000000         0.000000         0.000000         0.000000         0.000000         0.000000         0.000000         0.000000         0.000000         0.000000        -79.80472    
    3  20.00725          20.09561        -20.81968         0.000000         0.000000         0.000000         0.000000         0.000000         0.000000         0.000000         0.000000         0.000000         0.000000    
    4  20.01033          20.19492        -28.99514         0.000000         0.000000         0.000000        0.2000000         0.000000         0.000000         0.000000         0.000000         0.000000         0.000000    
    5  20.01093          20.30000        -22.70331         0.000000         0.000000         0.000000         0.000000         0.000000         0.000000         0.000000         0.000000         0.000000         0.000000    
 
TUBE  B  E  FLOW          Q [M^3/D]       DIAM.[M]        LEN.[M]        RE         RESIDENCE TIME [D]
   1   1   3   TURB.         7.08659        0.10000       10.00000     1169.30971        0.01108
   2   2   3   TURB.       -79.80472        0.10000       10.00000    13168.02366        0.00098
   3   3   4   TURB.       -51.89844        0.10000       10.00000     8563.40265        0.00151
   4   4   5   TURB.       -22.70331        0.10000       10.00000     3746.11562        0.00346
 

    BUDGET OF THE PIPE SYSTEM OF TIMESTEP    5 IN STRESS PERIOD    3
------------------------------------------------------------------------

  TOTAL SIMULATION TIME   250.000000000000      S
 
        CUMULATIVE VALUES (L**3)        RATES THIS TIME STEP (L**3/T)

            IN:                               IN:
     CONSTANT HEAD =   0.0000000          CONSTANT HEAD =   0.0000000    
   MATRIX EXCHANGE =   19901.178        MATRIX EXCHANGE =   79.604719    
     PIPE RECHARGE =   50.000000          PIPE RECHARGE =  0.20000000    
       PFP STORAGE =   0.0000000            PFP STORAGE =   0.0000000    

     CUMULATIVE IN =   19951.178               TOTAL IN =   79.804719    

           OUT:                               OUT:
     CONSTANT HEAD =   19951.178          CONSTANT HEAD =   79.804719    
   MATRIX EXCHANGE =   0.0000000        MATRIX EXCHANGE =   0.0000000    
     PIPE RECHARGE =   0.0000000          PIPE RECHARGE =   0.0000000    
       PFP STORAGE =   0.0000000            PFP STORAGE =   0.0000000    

    CUMULATIVE OUT =   19951.178              TOTAL OUT =   79.804719    

          IN - OUT = -0.88402885E-09           IN - OUT = -0.15774049E-11
     PERCENT ERROR = -0.00                PERCENT ERROR = -0.00


 
 ------------------------NODE WATER BUDGET-----------------------
  STRESS PERIOD           3  TIME STEP           5
 TOTAL SIMULATION TIME   250.000000000000     
 
 FLOW TO THE NODE IN M^3/D
 
 NODE     FIXED HEAD     RECHARGE        QWELL  MATRIX EXCH      STORAGE      TUBE_IN     TUBE_OUT         CADS     FHLQ(LQ)       CAUCHY   CAUCHY(LQ)          QLH     IN - OUT
    1     0.0000       0.0000       0.0000       7.0866       0.0000       0.0000      -7.0866       0.0000       0.0000       0.0000       0.0000       0.0000      0.55677E-10
    2    -79.805       0.0000       0.0000       0.0000       0.0000       79.805       0.0000       0.0000       0.0000       0.0000       0.0000       0.0000       0.0000    
    3     0.0000       0.0000       0.0000       20.820       0.0000       58.985      -79.805       0.0000       0.0000       0.0000       0.0000       0.0000     -0.58037E-10
    4     0.0000      0.20000       0.0000       28.995       0.0000       22.703      -51.898       0.0000       0.0000       0.0000       0.0000       0.0000     -0.35840E-10
    5     0.0000       0.0000       0.0000       22.703       0.0000       0.0000      -22.703       0.0000       0.0000       0.0000       0.0000       0.0000      0.36618E-10
     1 CALLS TO PCG ROUTINE FOR TIME STEP   5 IN STRESS PERIOD    3
     1 TOTAL ITERATIONS

 MAXIMUM HEAD CHANGE FOR EACH ITERATION (1 INDICATES THE FIRST INNER ITERATION):

    HEAD CHANGE    HEAD CHANGE    HEAD CHANGE    HEAD CHANGE    HEAD CHANGE 
   LAYER,ROW,COL  LAYER,ROW,COL  LAYER,ROW,COL  LAYER,ROW,COL  LAYER,ROW,COL
 ---------------------------------------------------------------------------
  1 -0.5738E-10
   (  3,  2,  3)

 MAXIMUM RESIDUAL FOR EACH ITERATION (1 INDICATES THE FIRST INNER ITERATION):

    RESIDUAL       RESIDUAL       RESIDUAL       RESIDUAL       RESIDUAL    
   LAYER,ROW,COL  LAYER,ROW,COL  LAYER,ROW,COL  LAYER,ROW,COL  LAYER,ROW,COL
 ---------------------------------------------------------------------------
  1 -0.2534E-06
   (  1,  3,  2)


 
 SOLVING FOR HEAD 
MODFLOW ITER.#  NEWTON-RAPHSON ITER.#   MAXIMUM NODE HEAD CHANGE
         1                   1                  0.0000000000
         1                   2                  0.0000000000
         1                   3                  0.0000000000


Solver Convergence Information:
                              HClose:  2.8130387E-11
                              RClose:  1.1874363E-7
                           L2-RClose:  2.1838309E-7
                         Rel-Vol-Err:  0.0
 
MODFLOW ITER.#  NEWTON-RAPHSON ITER.#   MAXIMUM NODE HEAD CHANGE
         1                   1                  0.0000000000
         1                   2                  0.0000000000
         1                   3                  0.0000000000

 NO OUTPUT CONTROL FOR STRESS PERIOD      3   TIME STEP     6
 
 
 CFPM1 CRITERION OF CONVERGENCE:     0.1000000E-05
 CFPM1 MAXIMUM NUMBER OF ITERATIONS:   100
 
 
 CFPM1 RESULTS +++++++++++++++++++++++++++++++++++++++++++++++++++++++
 
 STRESS PERIOD/TIME STEP           3           6
 
NUMBER OF NEWTON RHAPSON ITERATIONS:     3
 
 ------- RESULTS OF FLOW CALCULATION -------
 
NODE#  NODE HEAD[M]   MATRIX HEAD [M] EXCHANGE [M^3/D]      CAD STORAGE    CADS RECHARGE         PFPSFLOW  DIRECT RECHARGE            QWELL             FHLQ           CAUCHY        CAUCHY LQ              QLH             QFIX
    1  20.00731          20.09754        -7.086594         0.000000         0.000000         0.000000         0.000000         0.000000         0.000000         0.000000         0.000000         0.000000         0.000000    
    2  20.00    FIX      20.00000         0.000000         0.000000         0.000000         0.000000         0.000000         0.000000         0.000000         0.000000         0.000000         0.000000        -79.80472    
    3  20.00725          20.09561        -20.81968         0.000000         0.000000         0.000000         0.000000         0.000000         0.000000         0.000000         0.000000         0.000000         0.000000    
    4  20.01033          20.19492        -28.99514         0.000000         0.000000         0.000000        0.2000000         0.000000         0.000000         0.000000         0.000000         0.000000         0.000000    
    5  20.01093          20.30000        -22.70331         0.000000         0.000000         0.000000         0.000000         0.000000         0.000000         0.000000         0.000000         0.000000         0.000000    
 
TUBE  B  E  FLOW          Q [M^3/D]       DIAM.[M]        LEN.[M]        RE         RESIDENCE TIME [D]
   1   1   3   TURB.         7.08659        0.10000       10.00000     1169.30971        0.01108
   2   2   3   TURB.       -79.80472        0.10000       10.00000    13168.02366        0.00098
   3   3   4   TURB.       -51.89844        0.10000       10.00000     8563.40265        0.00151
   4   4   5   TURB.       -22.70331        0.10000       10.00000     3746.11562        0.00346
 

    BUDGET OF THE PIPE SYSTEM OF TIMESTEP    6 IN STRESS PERIOD    3
------------------------------------------------------------------------

  TOTAL SIMULATION TIME   260.000000000000      S
 
        CUMULATIVE VALUES (L**3)        RATES THIS TIME STEP (L**3/T)

            IN:                               IN:
     CONSTANT HEAD =   0.0000000          CONSTANT HEAD =   0.0000000    
   MATRIX EXCHANGE =   20697.226        MATRIX EXCHANGE =   79.604719    
     PIPE RECHARGE =   52.000000          PIPE RECHARGE =  0.20000000    
       PFP STORAGE =   0.0000000            PFP STORAGE =   0.0000000    

     CUMULATIVE IN =   20749.226               TOTAL IN =   79.804719    

           OUT:                               OUT:
     CONSTANT HEAD =   20749.226          CONSTANT HEAD =   79.804719    
   MATRIX EXCHANGE =   0.0000000        MATRIX EXCHANGE =   0.0000000    
     PIPE RECHARGE =   0.0000000          PIPE RECHARGE =   0.0000000    
       PFP STORAGE =   0.0000000            PFP STORAGE =   0.0000000    

    CUMULATIVE OUT =   20749.226              TOTAL OUT =   79.804719    

          IN - OUT = -0.82218321E-09           IN - OUT =  0.62527761E-11
     PERCENT ERROR = -0.00                PERCENT ERROR =  0.00


 
 ------------------------NODE WATER BUDGET-----------------------
  STRESS PERIOD           3  TIME STEP           6
 TOTAL SIMULATION TIME   260.000000000000     
 
 FLOW TO THE NODE IN M^3/D
 
 NODE     FIXED HEAD     RECHARGE        QWELL  MATRIX EXCH      STORAGE      TUBE_IN     TUBE_OUT         CADS     FHLQ(LQ)       CAUCHY   CAUCHY(LQ)          QLH     IN - OUT
    1     0.0000       0.0000       0.0000       7.0866       0.0000       0.0000      -7.0866       0.0000       0.0000       0.0000       0.0000       0.0000     -0.37702E-10
    2    -79.805       0.0000       0.0000       0.0000       0.0000       79.805       0.0000       0.0000       0.0000       0.0000       0.0000       0.0000       0.0000    
    3     0.0000       0.0000       0.0000       20.820       0.0000       58.985      -79.805       0.0000       0.0000       0.0000       0.0000       0.0000      0.49738E-10
    4     0.0000      0.20000       0.0000       28.995       0.0000       22.703      -51.898       0.0000       0.0000       0.0000       0.0000       0.0000      0.22055E-10
    5     0.0000       0.0000       0.0000       22.703       0.0000       0.0000      -22.703       0.0000       0.0000       0.0000       0.0000       0.0000     -0.27836E-10
     1 CALLS TO PCG ROUTINE FOR TIME STEP   6 IN STRESS PERIOD    3
     1 TOTAL ITERATIONS
 
 SOLVING FOR HEAD 
MODFLOW ITER.#  NEWTON-RAPHSON ITER.#   MAXIMUM NODE HEAD CHANGE
         1                   1                  0.0000000000
         1                   2                  0.0000000000
         1                   3                  0.0000000000


Solver Convergence Information:
                              HClose:  1.2736479E-11
                              RClose:  5.7218131E-8
                           L2-RClose:  1.0861567E-7
                         Rel-Vol-Err:  0.0
 
MODFLOW ITER.#  NEWTON-RAPHSON ITER.#   MAXIMUM NODE HEAD CHANGE
         1                   1                  0.0000000000
         1                   2                  0.0000000000
         1                   3                  0.0000000000

 NO OUTPUT CONTROL FOR STRESS PERIOD      3   TIME STEP     7
 
 
 CFPM1 CRITERION OF CONVERGENCE:     0.1000000E-05
 CFPM1 MAXIMUM NUMBER OF ITERATIONS:   100
 
 
 CFPM1 RESULTS +++++++++++++++++++++++++++++++++++++++++++++++++++++++
 
 STRESS PERIOD/TIME STEP           3           7
 
NUMBER OF NEWTON RHAPSON ITERATIONS:     3
 
 ------- RESULTS OF FLOW CALCULATION -------
 
NODE#  NODE HEAD[M]   MATRIX HEAD [M] EXCHANGE [M^3/D]      CAD STORAGE    CADS RECHARGE         PFPSFLOW  DIRECT RECHARGE            QWELL             FHLQ           CAUCHY        CAUCHY LQ              QLH             QFIX
    1  20.00731          20.09754        -7.086594         0.000000         0.000000         0.000000         0.000000         0.000000         0.000000         0.000000         0.000000         0.000000         0.000000    
    2  20.00    FIX      20.00000         0.000000         0.000000         0.000000         0.000000         0.000000         0.000000         0.000000         0.000000         0.000000         0.000000        -79.80472    
    3  20.00725          20.09561        -20.81968         0.000000         0.000000         0.000000         0.000000         0.000000         0.000000         0.000000         0.000000         0.000000         0.000000    
    4  20.01033          20.19492        -28.99514         0.000000         0.000000         0.000000        0.2000000         0.000000         0.000000         0.000000         0.000000         0.000000         0.000000    
    5  20.01093          20.30000        -22.70331         0.000000         0.000000         0.000000         0.000000         0.000000         0.000000         0.000000         0.000000         0.000000         0.000000    
 
TUBE  B  E  FLOW          Q [M^3/D]       DIAM.[M]        LEN.[M]        RE         RESIDENCE TIME [D]
   1   1   3   TURB.         7.08659        0.10000       10.00000     1169.30971        0.01108
   2   2   3   TURB.       -79.80472        0.10000       10.00000    13168.02366        0.00098
   3   3   4   TURB.       -51.89844        0.10000       10.00000     8563.40265        0.00151
   4   4   5   TURB.       -22.70331        0.10000       10.00000     3746.11562        0.00346
 

    BUDGET OF THE PIPE SYSTEM OF TIMESTEP    7 IN STRESS PERIOD    3
------------------------------------------------------------------------

  TOTAL SIMULATION TIME   270.000000000000      S
 
        CUMULATIVE VALUES (L**3)        RATES THIS TIME STEP (L**3/T)

            IN:                               IN:
     CONSTANT HEAD =   0.0000000          CONSTANT HEAD =   0.0000000    
   MATRIX EXCHANGE =   21493.273        MATRIX EXCHANGE =   79.604719    
     PIPE RECHARGE =   54.000000          PIPE RECHARGE =  0.20000000    
       PFP STORAGE =   0.0000000            PFP STORAGE =   0.0000000    

     CUMULATIVE IN =   21547.273               TOTAL IN =   79.804719    

           OUT:                               OUT:
     CONSTANT HEAD =   21547.273          CONSTANT HEAD =   79.804719    
   MATRIX EXCHANGE =   0.0000000        MATRIX EXCHANGE =   0.0000000    
     PIPE RECHARGE =   0.0000000          PIPE RECHARGE =   0.0000000    
       PFP STORAGE =   0.0000000            PFP STORAGE =   0.0000000    

    CUMULATIVE OUT =   21547.273              TOTAL OUT =   79.804719    

          IN - OUT = -0.75669959E-09           IN - OUT =  0.62669869E-11
     PERCENT ERROR = -0.00                PERCENT ERROR =  0.00


 
 ------------------------NODE WATER BUDGET-----------------------
  STRESS PERIOD           3  TIME STEP           7
 TOTAL SIMULATION TIME   270.000000000000     
 
 FLOW TO THE NODE IN M^3/D
 
 NODE     FIXED HEAD     RECHARGE        QWELL  MATRIX EXCH      STORAGE      TUBE_IN     TUBE_OUT         CADS     FHLQ(LQ)       CAUCHY   CAUCHY(LQ)          QLH     IN - OUT
    1     0.0000       0.0000       0.0000       7.0866       0.0000       0.0000      -7.0866       0.0000       0.0000       0.0000       0.0000       0.0000     -0.13431E-09
    2    -79.805       0.0000       0.0000       0.0000       0.0000       79.805       0.0000       0.0000       0.0000       0.0000       0.0000       0.0000       0.0000    
    3     0.0000       0.0000       0.0000       20.820       0.0000       58.985      -79.805       0.0000       0.0000       0.0000       0.0000       0.0000      0.16188E-09
    4     0.0000      0.20000       0.0000       28.995       0.0000       22.703      -51.898       0.0000       0.0000       0.0000       0.0000       0.0000     -0.55756E-10
    5     0.0000       0.0000       0.0000       22.703       0.0000       0.0000      -22.703       0.0000       0.0000       0.0000       0.0000       0.0000      0.34447E-10
     1 CALLS TO PCG ROUTINE FOR TIME STEP   7 IN STRESS PERIOD    3
     1 TOTAL ITERATIONS
 
 SOLVING FOR HEAD 
MODFLOW ITER.#  NEWTON-RAPHSON ITER.#   MAXIMUM NODE HEAD CHANGE
         1                   1                  0.0000000000
         1                   2                  0.0000000000
         1                   3                  0.0000000000


Solver Convergence Information:
                              HClose:  6.5298877E-12
                              RClose:  2.6833732E-8
                           L2-RClose:  4.9395846E-8
                         Rel-Vol-Err:  0.0
 
MODFLOW ITER.#  NEWTON-RAPHSON ITER.#   MAXIMUM NODE HEAD CHANGE
         1                   1                  0.0000000000
         1                   2                  0.0000000000
         1                   3                  0.0000000000

 NO OUTPUT CONTROL FOR STRESS PERIOD      3   TIME STEP     8
 
 
 CFPM1 CRITERION OF CONVERGENCE:     0.1000000E-05
 CFPM1 MAXIMUM NUMBER OF ITERATIONS:   100
 
 
 CFPM1 RESULTS +++++++++++++++++++++++++++++++++++++++++++++++++++++++
 
 STRESS PERIOD/TIME STEP           3           8
 
NUMBER OF NEWTON RHAPSON ITERATIONS:     3
 
 ------- RESULTS OF FLOW CALCULATION -------
 
NODE#  NODE HEAD[M]   MATRIX HEAD [M] EXCHANGE [M^3/D]      CAD STORAGE    CADS RECHARGE         PFPSFLOW  DIRECT RECHARGE            QWELL             FHLQ           CAUCHY        CAUCHY LQ              QLH             QFIX
    1  20.00731          20.09754        -7.086594         0.000000         0.000000         0.000000         0.000000         0.000000         0.000000         0.000000         0.000000         0.000000         0.000000    
    2  20.00    FIX      20.00000         0.000000         0.000000         0.000000         0.000000         0.000000         0.000000         0.000000         0.000000         0.000000         0.000000        -79.80472    
    3  20.00725          20.09561        -20.81968         0.000000         0.000000         0.000000         0.000000         0.000000         0.000000         0.000000         0.000000         0.000000         0.000000    
    4  20.01033          20.19492        -28.99514         0.000000         0.000000         0.000000        0.2000000         0.000000         0.000000         0.000000         0.000000         0.000000         0.000000    
    5  20.01093          20.30000        -22.70331         0.000000         0.000000         0.000000         0.000000         0.000000         0.000000         0.000000         0.000000         0.000000         0.000000    
 
TUBE  B  E  FLOW          Q [M^3/D]       DIAM.[M]        LEN.[M]        RE         RESIDENCE TIME [D]
   1   1   3   TURB.         7.08659        0.10000       10.00000     1169.30971        0.01108
   2   2   3   TURB.       -79.80472        0.10000       10.00000    13168.02366        0.00098
   3   3   4   TURB.       -51.89844        0.10000       10.00000     8563.40265        0.00151
   4   4   5   TURB.       -22.70331        0.10000       10.00000     3746.11562        0.00346
 

    BUDGET OF THE PIPE SYSTEM OF TIMESTEP    8 IN STRESS PERIOD    3
------------------------------------------------------------------------

  TOTAL SIMULATION TIME   280.000000000000      S
 
        CUMULATIVE VALUES (L**3)        RATES THIS TIME STEP (L**3/T)

            IN:                               IN:
     CONSTANT HEAD =   0.0000000          CONSTANT HEAD =   0.0000000    
   MATRIX EXCHANGE =   22289.320        MATRIX EXCHANGE =   79.604719    
     PIPE RECHARGE =   56.000000          PIPE RECHARGE =  0.20000000    
       PFP STORAGE =   0.0000000            PFP STORAGE =   0.0000000    

     CUMULATIVE IN =   22345.320               TOTAL IN =   79.804719    

           OUT:                               OUT:
     CONSTANT HEAD =   22345.320          CONSTANT HEAD =   79.804719    
   MATRIX EXCHANGE =   0.0000000        MATRIX EXCHANGE =   0.0000000    
     PIPE RECHARGE =   0.0000000          PIPE RECHARGE =   0.0000000    
       PFP STORAGE =   0.0000000            PFP STORAGE =   0.0000000    

    CUMULATIVE OUT =   22345.320              TOTAL OUT =   79.804719    

          IN - OUT = -0.79307938E-09           IN - OUT = -0.40927262E-11
     PERCENT ERROR = -0.00                PERCENT ERROR = -0.00


 
 ------------------------NODE WATER BUDGET-----------------------
  STRESS PERIOD           3  TIME STEP           8
 TOTAL SIMULATION TIME   280.000000000000     
 
 FLOW TO THE NODE IN M^3/D
 
 NODE     FIXED HEAD     RECHARGE        QWELL  MATRIX EXCH      STORAGE      TUBE_IN     TUBE_OUT         CADS     FHLQ(LQ)       CAUCHY   CAUCHY(LQ)          QLH     IN - OUT
    1     0.0000       0.0000       0.0000       7.0866       0.0000       0.0000      -7.0866       0.0000       0.0000       0.0000       0.0000       0.0000      0.10232E-11
    2    -79.805       0.0000       0.0000       0.0000       0.0000       79.805       0.0000       0.0000       0.0000       0.0000       0.0000       0.0000       0.0000    
    3     0.0000       0.0000       0.0000       20.820       0.0000       58.985      -79.805       0.0000       0.0000       0.0000       0.0000       0.0000     -0.22411E-10
    4     0.0000      0.20000       0.0000       28.995       0.0000       22.703      -51.898       0.0000       0.0000       0.0000       0.0000       0.0000      0.68297E-10
    5     0.0000       0.0000       0.0000       22.703       0.0000       0.0000      -22.703       0.0000       0.0000       0.0000       0.0000       0.0000     -0.50996E-10
     1 CALLS TO PCG ROUTINE FOR TIME STEP   8 IN STRESS PERIOD    3
     1 TOTAL ITERATIONS
 
 SOLVING FOR HEAD 
MODFLOW ITER.#  NEWTON-RAPHSON ITER.#   MAXIMUM NODE HEAD CHANGE
         1                   1                  0.0000000000
         1                   2                  0.0000000000
         1                   3                  0.0000000000


Solver Convergence Information:
                              HClose:  2.8741454E-12
                              RClose:  1.2922101E-8
                           L2-RClose:  2.4520007E-8
                         Rel-Vol-Err:  0.0
 
MODFLOW ITER.#  NEWTON-RAPHSON ITER.#   MAXIMUM NODE HEAD CHANGE
         1                   1                  0.0000000000
         1                   2                  0.0000000000
         1                   3                  0.0000000000

 NO OUTPUT CONTROL FOR STRESS PERIOD      3   TIME STEP     9
 
 
 CFPM1 CRITERION OF CONVERGENCE:     0.1000000E-05
 CFPM1 MAXIMUM NUMBER OF ITERATIONS:   100
 
 
 CFPM1 RESULTS +++++++++++++++++++++++++++++++++++++++++++++++++++++++
 
 STRESS PERIOD/TIME STEP           3           9
 
NUMBER OF NEWTON RHAPSON ITERATIONS:     3
 
 ------- RESULTS OF FLOW CALCULATION -------
 
NODE#  NODE HEAD[M]   MATRIX HEAD [M] EXCHANGE [M^3/D]      CAD STORAGE    CADS RECHARGE         PFPSFLOW  DIRECT RECHARGE            QWELL             FHLQ           CAUCHY        CAUCHY LQ              QLH             QFIX
    1  20.00731          20.09754        -7.086594         0.000000         0.000000         0.000000         0.000000         0.000000         0.000000         0.000000         0.000000         0.000000         0.000000    
    2  20.00    FIX      20.00000         0.000000         0.000000         0.000000         0.000000         0.000000         0.000000         0.000000         0.000000         0.000000         0.000000        -79.80472    
    3  20.00725          20.09561        -20.81968         0.000000         0.000000         0.000000         0.000000         0.000000         0.000000         0.000000         0.000000         0.000000         0.000000    
    4  20.01033          20.19492        -28.99514         0.000000         0.000000         0.000000        0.2000000         0.000000         0.000000         0.000000         0.000000         0.000000         0.000000    
    5  20.01093          20.30000        -22.70331         0.000000         0.000000         0.000000         0.000000         0.000000         0.000000         0.000000         0.000000         0.000000         0.000000    
 
TUBE  B  E  FLOW          Q [M^3/D]       DIAM.[M]        LEN.[M]        RE         RESIDENCE TIME [D]
   1   1   3   TURB.         7.08659        0.10000       10.00000     1169.30971        0.01108
   2   2   3   TURB.       -79.80472        0.10000       10.00000    13168.02366        0.00098
   3   3   4   TURB.       -51.89844        0.10000       10.00000     8563.40265        0.00151
   4   4   5   TURB.       -22.70331        0.10000       10.00000     3746.11562        0.00346
 

    BUDGET OF THE PIPE SYSTEM OF TIMESTEP    9 IN STRESS PERIOD    3
------------------------------------------------------------------------

  TOTAL SIMULATION TIME   290.000000000000      S
 
        CUMULATIVE VALUES (L**3)        RATES THIS TIME STEP (L**3/T)

            IN:                               IN:
     CONSTANT HEAD =   0.0000000          CONSTANT HEAD =   0.0000000    
   MATRIX EXCHANGE =   23085.367        MATRIX EXCHANGE =   79.604719    
     PIPE RECHARGE =   58.000000          PIPE RECHARGE =  0.20000000    
       PFP STORAGE =   0.0000000            PFP STORAGE =   0.0000000    

     CUMULATIVE IN =   23143.367               TOTAL IN =   79.804719    

           OUT:                               OUT:
     CONSTANT HEAD =   23143.367          CONSTANT HEAD =   79.804719    
   MATRIX EXCHANGE =   0.0000000        MATRIX EXCHANGE =   0.0000000    
     PIPE RECHARGE =   0.0000000          PIPE RECHARGE =   0.0000000    
       PFP STORAGE =   0.0000000            PFP STORAGE =   0.0000000    

    CUMULATIVE OUT =   23143.367              TOTAL OUT =   79.804719    

          IN - OUT = -0.82945917E-09           IN - OUT = -0.37516656E-11
     PERCENT ERROR = -0.00                PERCENT ERROR = -0.00


 
 ------------------------NODE WATER BUDGET-----------------------
  STRESS PERIOD           3  TIME STEP           9
 TOTAL SIMULATION TIME   290.000000000000     
 
 FLOW TO THE NODE IN M^3/D
 
 NODE     FIXED HEAD     RECHARGE        QWELL  MATRIX EXCH      STORAGE      TUBE_IN     TUBE_OUT         CADS     FHLQ(LQ)       CAUCHY   CAUCHY(LQ)          QLH     IN - OUT
    1     0.0000       0.0000       0.0000       7.0866       0.0000       0.0000      -7.0866       0.0000       0.0000       0.0000       0.0000       0.0000      0.31995E-10
    2    -79.805       0.0000       0.0000       0.0000       0.0000       79.805       0.0000       0.0000       0.0000       0.0000       0.0000       0.0000       0.0000    
    3     0.0000       0.0000       0.0000       20.820       0.0000       58.985      -79.805       0.0000       0.0000       0.0000       0.0000       0.0000     -0.38938E-10
    4     0.0000      0.20000       0.0000       28.995       0.0000       22.703      -51.898       0.0000       0.0000       0.0000       0.0000       0.0000     -0.13124E-10
    5     0.0000       0.0000       0.0000       22.703       0.0000       0.0000      -22.703       0.0000       0.0000       0.0000       0.0000       0.0000      0.16311E-10
     1 CALLS TO PCG ROUTINE FOR TIME STEP   9 IN STRESS PERIOD    3
     1 TOTAL ITERATIONS
 
 SOLVING FOR HEAD 
MODFLOW ITER.#  NEWTON-RAPHSON ITER.#   MAXIMUM NODE HEAD CHANGE
         1                   1                  0.0000000000
         1                   2                  0.0000000000
         1                   3                  0.0000000000


Solver Convergence Information:
                              HClose:  1.5099033E-12
                              RClose:  6.0535967E-9
                           L2-RClose:  1.1284182E-8
                         Rel-Vol-Err:  0.0
 
MODFLOW ITER.#  NEWTON-RAPHSON ITER.#   MAXIMUM NODE HEAD CHANGE
         1                   1                  0.0000000000
         1                   2                  0.0000000000
         1                   3                  0.0000000000

 NO OUTPUT CONTROL FOR STRESS PERIOD      3   TIME STEP    10
 
 
 CFPM1 CRITERION OF CONVERGENCE:     0.1000000E-05
 CFPM1 MAXIMUM NUMBER OF ITERATIONS:   100
 
 
 CFPM1 RESULTS +++++++++++++++++++++++++++++++++++++++++++++++++++++++
 
 STRESS PERIOD/TIME STEP           3          10
 
NUMBER OF NEWTON RHAPSON ITERATIONS:     3
 
 ------- RESULTS OF FLOW CALCULATION -------
 
NODE#  NODE HEAD[M]   MATRIX HEAD [M] EXCHANGE [M^3/D]      CAD STORAGE    CADS RECHARGE         PFPSFLOW  DIRECT RECHARGE            QWELL             FHLQ           CAUCHY        CAUCHY LQ              QLH             QFIX
    1  20.00731          20.09754        -7.086594         0.000000         0.000000         0.000000         0.000000         0.000000         0.000000         0.000000         0.000000         0.000000         0.000000    
    2  20.00    FIX      20.00000         0.000000         0.000000         0.000000         0.000000         0.000000         0.000000         0.000000         0.000000         0.000000         0.000000        -79.80472    
    3  20.00725          20.09561        -20.81968         0.000000         0.000000         0.000000         0.000000         0.000000         0.000000         0.000000         0.000000         0.000000         0.000000    
    4  20.01033          20.19492        -28.99514         0.000000         0.000000         0.000000        0.2000000         0.000000         0.000000         0.000000         0.000000         0.000000         0.000000    
    5  20.01093          20.30000        -22.70331         0.000000         0.000000         0.000000         0.000000         0.000000         0.000000         0.000000         0.000000         0.000000         0.000000    
 
TUBE  B  E  FLOW          Q [M^3/D]       DIAM.[M]        LEN.[M]        RE         RESIDENCE TIME [D]
   1   1   3   TURB.         7.08659        0.10000       10.00000     1169.30971        0.01108
   2   2   3   TURB.       -79.80472        0.10000       10.00000    13168.02366        0.00098
   3   3   4   TURB.       -51.89844        0.10000       10.00000     8563.40265        0.00151
   4   4   5   TURB.       -22.70331        0.10000       10.00000     3746.11562        0.00346
 

    BUDGET OF THE PIPE SYSTEM OF TIMESTEP   10 IN STRESS PERIOD    3
------------------------------------------------------------------------

  TOTAL SIMULATION TIME   300.000000000000      S
 
        CUMULATIVE VALUES (L**3)        RATES THIS TIME STEP (L**3/T)

            IN:                               IN:
     CONSTANT HEAD =   0.0000000          CONSTANT HEAD =   0.0000000    
   MATRIX EXCHANGE =   23881.414        MATRIX EXCHANGE =   79.604719    
     PIPE RECHARGE =   60.000000          PIPE RECHARGE =  0.20000000    
       PFP STORAGE =   0.0000000            PFP STORAGE =   0.0000000    

     CUMULATIVE IN =   23941.414               TOTAL IN =   79.804719    

           OUT:                               OUT:
     CONSTANT HEAD =   23941.414          CONSTANT HEAD =   79.804719    
   MATRIX EXCHANGE =   0.0000000        MATRIX EXCHANGE =   0.0000000    
     PIPE RECHARGE =   0.0000000          PIPE RECHARGE =   0.0000000    
       PFP STORAGE =   0.0000000            PFP STORAGE =   0.0000000    

    CUMULATIVE OUT =   23941.414              TOTAL OUT =   79.804719    

          IN - OUT = -0.72759576E-09           IN - OUT =  0.10189183E-10
     PERCENT ERROR = -0.00                PERCENT ERROR =  0.00


 
 ------------------------NODE WATER BUDGET-----------------------
  STRESS PERIOD           3  TIME STEP          10
 TOTAL SIMULATION TIME   300.000000000000     
 
 FLOW TO THE NODE IN M^3/D
 
 NODE     FIXED HEAD     RECHARGE        QWELL  MATRIX EXCH      STORAGE      TUBE_IN     TUBE_OUT         CADS     FHLQ(LQ)       CAUCHY   CAUCHY(LQ)          QLH     IN - OUT
    1     0.0000       0.0000       0.0000       7.0866       0.0000       0.0000      -7.0866       0.0000       0.0000       0.0000       0.0000       0.0000     -0.14413E-09
    2    -79.805       0.0000       0.0000       0.0000       0.0000       79.805       0.0000       0.0000       0.0000       0.0000       0.0000       0.0000       0.0000    
    3     0.0000       0.0000       0.0000       20.820       0.0000       58.985      -79.805       0.0000       0.0000       0.0000       0.0000       0.0000      0.16439E-09
    4     0.0000      0.20000       0.0000       28.995       0.0000       22.703      -51.898       0.0000       0.0000       0.0000       0.0000       0.0000     -0.22197E-10
    5     0.0000       0.0000       0.0000       22.703       0.0000       0.0000      -22.703       0.0000       0.0000       0.0000       0.0000       0.0000      0.12125E-10
     1 CALLS TO PCG ROUTINE FOR TIME STEP  10 IN STRESS PERIOD    3
     1 TOTAL ITERATIONS

 MAXIMUM HEAD CHANGE FOR EACH ITERATION (1 INDICATES THE FIRST INNER ITERATION):

    HEAD CHANGE    HEAD CHANGE    HEAD CHANGE    HEAD CHANGE    HEAD CHANGE 
   LAYER,ROW,COL  LAYER,ROW,COL  LAYER,ROW,COL  LAYER,ROW,COL  LAYER,ROW,COL
 ---------------------------------------------------------------------------
  1  0.1508E-11
   (  1,  2,  3)

 MAXIMUM RESIDUAL FOR EACH ITERATION (1 INDICATES THE FIRST INNER ITERATION):

    RESIDUAL       RESIDUAL       RESIDUAL       RESIDUAL       RESIDUAL    
   LAYER,ROW,COL  LAYER,ROW,COL  LAYER,ROW,COL  LAYER,ROW,COL  LAYER,ROW,COL
 ---------------------------------------------------------------------------
  1 -0.6075E-08
   (  1,  3,  2)





  -------------------------------------------------------------------------------------
  VOLUMETRIC BUDGET FOR ENTIRE MODEL AT END OF TIME STEP   10 IN STRESS PERIOD      3
  -------------------------------------------------------------------------------------

     CUMULATIVE VOLUMES      L**3       RATES FOR THIS TIME STEP      L**3/T
     ------------------                 ------------------------

           IN:                                      IN:
           ---                                      ---
             STORAGE =       2.7877E-06               STORAGE =       4.1200E-17
       CONSTANT HEAD =      375200.6464         CONSTANT HEAD =        1250.6688
            RECHARGE =         420.0000              RECHARGE =           1.4000
               PIPES =           0.0000                 PIPES =           0.0000

            TOTAL IN =      375620.6464              TOTAL IN =        1252.0688

          OUT:                                     OUT:
          ----                                     ----
             STORAGE =       1.3939E-06               STORAGE =       2.3696E-15
       CONSTANT HEAD =      351739.2315         CONSTANT HEAD =        1172.4641
            RECHARGE =           0.0000              RECHARGE =           0.0000
               PIPES =       23881.4143                 PIPES =          79.6047

           TOTAL OUT =      375620.6459             TOTAL OUT =        1252.0688

            IN - OUT =       5.1241E-04              IN - OUT =       3.7721E-10

 PERCENT DISCREPANCY =           0.00     PERCENT DISCREPANCY =           0.00


          TIME SUMMARY AT END OF TIME STEP    10 IN STRESS PERIOD      3
                    SECONDS     MINUTES      HOURS       DAYS        YEARS
                    -----------------------------------------------------------
   TIME STEP LENGTH 8.64000E+05  14400.      240.00      10.000     2.73785E-02
 STRESS PERIOD TIME 8.64000E+06 1.44000E+05  2400.0      100.00     0.27379    
         TOTAL TIME 2.59200E+07 4.32000E+05  7200.0      300.00     0.82136    
 
1
                            STRESS PERIOD NO.      4, LENGTH =   100.0000    
                            -----------------------------------------------

                              NUMBER OF TIME STEPS =    10

                               MULTIPLIER FOR DELT =     1.000

                            INITIAL TIME STEP SIZE =   10.00000    

                 RECHARGE =  3.000000E-03
 
 CFP1RCH1RP SUBROUTINE READING FROM UNIT           14
  REUSING DATA FROM LAST STRESS PERIOD
 DATA FOR QCONDIR
 0.0     0.0     0.0     1.0     0.0   
 
 SOLVING FOR HEAD 
MODFLOW ITER.#  NEWTON-RAPHSON ITER.#   MAXIMUM NODE HEAD CHANGE
         1                   1                  0.0000270217
         1                   2                  0.0000000170
         1                   3                  0.0000000000
MODFLOW ITER.#  NEWTON-RAPHSON ITER.#   MAXIMUM NODE HEAD CHANGE
         2                   1                  0.0000025242
         2                   2                  0.0000000002
         2                   3                  0.0000000000
MODFLOW ITER.#  NEWTON-RAPHSON ITER.#   MAXIMUM NODE HEAD CHANGE
         3                   1                  0.0000000075
         3                   2                  0.0000000000
         3                   3                  0.0000000000


Solver Convergence Information:
                              HClose:  1.3549695E-9
                              RClose:  4.9201190E-6
                           L2-RClose:  1.0869958E-5
                         Rel-Vol-Err:  0.0
 
MODFLOW ITER.#  NEWTON-RAPHSON ITER.#   MAXIMUM NODE HEAD CHANGE
         3                   1                  0.0000000000
         3                   2                  0.0000000000
         3                   3                  0.0000000000

 OUTPUT CONTROL FOR STRESS PERIOD      4   TIME STEP     1
    PRINT HEAD FOR ALL LAYERS
    SAVE HEAD FOR ALL LAYERS
    SAVE BUDGET
 UBDSV1 SAVING "         STORAGE" ON UNIT 50 AT TIME STEP 1, STRESS PERIOD 4
 UBDSV2 SAVING "   CONSTANT HEAD" ON UNIT 50 AT TIME STEP 1, STRESS PERIOD 4
 UBDSV1 SAVING "FLOW RIGHT FACE " ON UNIT 50 AT TIME STEP 1, STRESS PERIOD 4
 UBDSV1 SAVING "FLOW FRONT FACE " ON UNIT 50 AT TIME STEP 1, STRESS PERIOD 4
 UBDSV1 SAVING "FLOW LOWER FACE " ON UNIT 50 AT TIME STEP 1, STRESS PERIOD 4
 UBDSV3 SAVING "        RECHARGE" ON UNIT 50 AT TIME STEP 1, STRESS PERIOD 4
 
 
 CFPM1 CRITERION OF CONVERGENCE:     0.1000000E-05
 CFPM1 MAXIMUM NUMBER OF ITERATIONS:   100
 
 
 CFPM1 RESULTS +++++++++++++++++++++++++++++++++++++++++++++++++++++++
 
 STRESS PERIOD/TIME STEP           4           1
 
NUMBER OF NEWTON RHAPSON ITERATIONS:     3
 
 ------- RESULTS OF FLOW CALCULATION -------
 
NODE#  NODE HEAD[M]   MATRIX HEAD [M] EXCHANGE [M^3/D]      CAD STORAGE    CADS RECHARGE         PFPSFLOW  DIRECT RECHARGE            QWELL             FHLQ           CAUCHY        CAUCHY LQ              QLH             QFIX
    1  20.00733          20.09757        -7.087780         0.000000         0.000000         0.000000         0.000000         0.000000         0.000000         0.000000         0.000000         0.000000         0.000000    
    2  20.00    FIX      20.00000         0.000000         0.000000         0.000000         0.000000         0.000000         0.000000         0.000000         0.000000         0.000000         0.000000        -79.90547    
    3  20.00726          20.09564        -20.82275         0.000000         0.000000         0.000000         0.000000         0.000000         0.000000         0.000000         0.000000         0.000000         0.000000    
    4  20.01036          20.19494        -28.99395         0.000000         0.000000         0.000000        0.3000000         0.000000         0.000000         0.000000         0.000000         0.000000         0.000000    
    5  20.01096          20.30000        -22.70100         0.000000         0.000000         0.000000         0.000000         0.000000         0.000000         0.000000         0.000000         0.000000         0.000000    
 
TUBE  B  E  FLOW          Q [M^3/D]       DIAM.[M]        LEN.[M]        RE         RESIDENCE TIME [D]
   1   1   3   TURB.         7.08778        0.10000       10.00000     1169.50541        0.01108
   2   2   3   TURB.       -79.90547        0.10000       10.00000    13184.64831        0.00098
   3   3   4   TURB.       -51.99495        0.10000       10.00000     8579.32580        0.00151
   4   4   5   TURB.       -22.70100        0.10000       10.00000     3745.73397        0.00346
 

    BUDGET OF THE PIPE SYSTEM OF TIMESTEP    1 IN STRESS PERIOD    4
------------------------------------------------------------------------

  TOTAL SIMULATION TIME   310.000000000000      S
 
        CUMULATIVE VALUES (L**3)        RATES THIS TIME STEP (L**3/T)

            IN:                               IN:
     CONSTANT HEAD =   0.0000000          CONSTANT HEAD =   0.0000000    
   MATRIX EXCHANGE =   24677.469        MATRIX EXCHANGE =   79.605473    
     PIPE RECHARGE =   63.000000          PIPE RECHARGE =  0.30000000    
       PFP STORAGE =   0.0000000            PFP STORAGE =   0.0000000    

     CUMULATIVE IN =   24740.469               TOTAL IN =   79.905473    

           OUT:                               OUT:
     CONSTANT HEAD =   24740.469          CONSTANT HEAD =   79.905473    
   MATRIX EXCHANGE =   0.0000000        MATRIX EXCHANGE =   0.0000000    
     PIPE RECHARGE =   0.0000000          PIPE RECHARGE =   0.0000000    
       PFP STORAGE =   0.0000000            PFP STORAGE =   0.0000000    

    CUMULATIVE OUT =   24740.469              TOTAL OUT =   79.905473    

          IN - OUT = -0.72395778E-09           IN - OUT =  0.65369932E-12
     PERCENT ERROR = -0.00                PERCENT ERROR =  0.00


 
 ------------------------NODE WATER BUDGET-----------------------
  STRESS PERIOD           4  TIME STEP           1
 TOTAL SIMULATION TIME   310.000000000000     
 
 FLOW TO THE NODE IN M^3/D
 
 NODE     FIXED HEAD     RECHARGE        QWELL  MATRIX EXCH      STORAGE      TUBE_IN     TUBE_OUT         CADS     FHLQ(LQ)       CAUCHY   CAUCHY(LQ)          QLH     IN - OUT
    1     0.0000       0.0000       0.0000       7.0878       0.0000       0.0000      -7.0878       0.0000       0.0000       0.0000       0.0000       0.0000     -0.54000E-10
    2    -79.905       0.0000       0.0000       0.0000       0.0000       79.905       0.0000       0.0000       0.0000       0.0000       0.0000       0.0000       0.0000    
    3     0.0000       0.0000       0.0000       20.823       0.0000       59.083      -79.905       0.0000       0.0000       0.0000       0.0000       0.0000      0.67317E-10
    4     0.0000      0.30000       0.0000       28.994       0.0000       22.701      -51.995       0.0000       0.0000       0.0000       0.0000       0.0000     -0.26375E-10
    5     0.0000       0.0000       0.0000       22.701       0.0000       0.0000      -22.701       0.0000       0.0000       0.0000       0.0000       0.0000      0.13721E-10


     3 CALLS TO PCG ROUTINE FOR TIME STEP   1 IN STRESS PERIOD    4
    11 TOTAL ITERATIONS
1
              HEAD IN LAYER   1 AT END OF TIME STEP   1 IN STRESS PERIOD    4
  ---------------------------------------------------------------------------

            1           2           3           4
 ................................................
   1    20.00       20.10       20.20       20.30    
   2    20.00       20.10       20.20       20.30    
   3    20.00       20.10       20.19       20.30    
   4    20.00       20.10       20.20       20.30    
1
              HEAD IN LAYER   2 AT END OF TIME STEP   1 IN STRESS PERIOD    4
  ---------------------------------------------------------------------------

            1           2           3           4
 ................................................
   1    20.00       20.10       20.20       20.30    
   2    20.00       20.10       20.20       20.30    
   3    20.00       20.10       20.20       20.30    
   4    20.00       20.10       20.20       20.30    
1
              HEAD IN LAYER   3 AT END OF TIME STEP   1 IN STRESS PERIOD    4
  ---------------------------------------------------------------------------

            1           2           3           4
 ................................................
   1    20.00       20.10       20.20       20.30    
   2    20.00       20.10       20.20       20.30    
   3    20.00       20.10       20.20       20.30    
   4    20.00       20.10       20.20       20.30    

 HEAD WILL BE SAVED ON UNIT   51 AT END OF TIME STEP     1 IN STRESS PERIOD      4

          TIME SUMMARY AT END OF TIME STEP     1 IN STRESS PERIOD      4
                    SECONDS     MINUTES      HOURS       DAYS        YEARS
                    -----------------------------------------------------------
   TIME STEP LENGTH 8.64000E+05  14400.      240.00      10.000     2.73785E-02
 STRESS PERIOD TIME 8.64000E+05  14400.      240.00      10.000     2.73785E-02
         TOTAL TIME 2.67840E+07 4.46400E+05  7440.0      310.00     0.84873    
 
 
 SOLVING FOR HEAD 
MODFLOW ITER.#  NEWTON-RAPHSON ITER.#   MAXIMUM NODE HEAD CHANGE
         1                   1                  0.0000000000
         1                   2                  0.0000000000
         1                   3                  0.0000000000


Solver Convergence Information:
                              HClose:  5.1941740E-10
                              RClose:  2.3459434E-6
                           L2-RClose:  4.6060464E-6
                         Rel-Vol-Err:  0.0
 
MODFLOW ITER.#  NEWTON-RAPHSON ITER.#   MAXIMUM NODE HEAD CHANGE
         1                   1                  0.0000000000
         1                   2                  0.0000000000
         1                   3                  0.0000000000

 NO OUTPUT CONTROL FOR STRESS PERIOD      4   TIME STEP     2
 
 
 CFPM1 CRITERION OF CONVERGENCE:     0.1000000E-05
 CFPM1 MAXIMUM NUMBER OF ITERATIONS:   100
 
 
 CFPM1 RESULTS +++++++++++++++++++++++++++++++++++++++++++++++++++++++
 
 STRESS PERIOD/TIME STEP           4           2
 
NUMBER OF NEWTON RHAPSON ITERATIONS:     3
 
 ------- RESULTS OF FLOW CALCULATION -------
 
NODE#  NODE HEAD[M]   MATRIX HEAD [M] EXCHANGE [M^3/D]      CAD STORAGE    CADS RECHARGE         PFPSFLOW  DIRECT RECHARGE            QWELL             FHLQ           CAUCHY        CAUCHY LQ              QLH             QFIX
    1  20.00733          20.09757        -7.087780         0.000000         0.000000         0.000000         0.000000         0.000000         0.000000         0.000000         0.000000         0.000000         0.000000    
    2  20.00    FIX      20.00000         0.000000         0.000000         0.000000         0.000000         0.000000         0.000000         0.000000         0.000000         0.000000         0.000000        -79.90547    
    3  20.00726          20.09564        -20.82275         0.000000         0.000000         0.000000         0.000000         0.000000         0.000000         0.000000         0.000000         0.000000         0.000000    
    4  20.01036          20.19494        -28.99395         0.000000         0.000000         0.000000        0.3000000         0.000000         0.000000         0.000000         0.000000         0.000000         0.000000    
    5  20.01096          20.30000        -22.70100         0.000000         0.000000         0.000000         0.000000         0.000000         0.000000         0.000000         0.000000         0.000000         0.000000    
 
TUBE  B  E  FLOW          Q [M^3/D]       DIAM.[M]        LEN.[M]        RE         RESIDENCE TIME [D]
   1   1   3   TURB.         7.08778        0.10000       10.00000     1169.50541        0.01108
   2   2   3   TURB.       -79.90547        0.10000       10.00000    13184.64831        0.00098
   3   3   4   TURB.       -51.99495        0.10000       10.00000     8579.32580        0.00151
   4   4   5   TURB.       -22.70100        0.10000       10.00000     3745.73397        0.00346
 

    BUDGET OF THE PIPE SYSTEM OF TIMESTEP    2 IN STRESS PERIOD    4
------------------------------------------------------------------------

  TOTAL SIMULATION TIME   320.000000000000      S
 
        CUMULATIVE VALUES (L**3)        RATES THIS TIME STEP (L**3/T)

            IN:                               IN:
     CONSTANT HEAD =   0.0000000          CONSTANT HEAD =   0.0000000    
   MATRIX EXCHANGE =   25473.524        MATRIX EXCHANGE =   79.605473    
     PIPE RECHARGE =   66.000000          PIPE RECHARGE =  0.30000000    
       PFP STORAGE =   0.0000000            PFP STORAGE =   0.0000000    

     CUMULATIVE IN =   25539.524               TOTAL IN =   79.905473    

           OUT:                               OUT:
     CONSTANT HEAD =   25539.524          CONSTANT HEAD =   79.905473    
   MATRIX EXCHANGE =   0.0000000        MATRIX EXCHANGE =   0.0000000    
     PIPE RECHARGE =   0.0000000          PIPE RECHARGE =   0.0000000    
       PFP STORAGE =   0.0000000            PFP STORAGE =   0.0000000    

    CUMULATIVE OUT =   25539.524              TOTAL OUT =   79.905473    

          IN - OUT = -0.64392225E-09           IN - OUT =  0.77733375E-11
     PERCENT ERROR = -0.00                PERCENT ERROR =  0.00


 
 ------------------------NODE WATER BUDGET-----------------------
  STRESS PERIOD           4  TIME STEP           2
 TOTAL SIMULATION TIME   320.000000000000     
 
 FLOW TO THE NODE IN M^3/D
 
 NODE     FIXED HEAD     RECHARGE        QWELL  MATRIX EXCH      STORAGE      TUBE_IN     TUBE_OUT         CADS     FHLQ(LQ)       CAUCHY   CAUCHY(LQ)          QLH     IN - OUT
    1     0.0000       0.0000       0.0000       7.0878       0.0000       0.0000      -7.0878       0.0000       0.0000       0.0000       0.0000       0.0000     -0.14619E-09
    2    -79.905       0.0000       0.0000       0.0000       0.0000       79.905       0.0000       0.0000       0.0000       0.0000       0.0000       0.0000       0.0000    
    3     0.0000       0.0000       0.0000       20.823       0.0000       59.083      -79.905       0.0000       0.0000       0.0000       0.0000       0.0000      0.16406E-09
    4     0.0000      0.30000       0.0000       28.994       0.0000       22.701      -51.995       0.0000       0.0000       0.0000       0.0000       0.0000     -0.35747E-10
    5     0.0000       0.0000       0.0000       22.701       0.0000       0.0000      -22.701       0.0000       0.0000       0.0000       0.0000       0.0000      0.25647E-10
     1 CALLS TO PCG ROUTINE FOR TIME STEP   2 IN STRESS PERIOD    4
     1 TOTAL ITERATIONS
 
 SOLVING FOR HEAD 
MODFLOW ITER.#  NEWTON-RAPHSON ITER.#   MAXIMUM NODE HEAD CHANGE
         1                   1                  0.0000000000
         1                   2                  0.0000000000
         1                   3                  0.0000000000


Solver Convergence Information:
                              HClose:  2.6781066E-10
                              RClose:  1.1253287E-6
                           L2-RClose:  2.2609889E-6
                         Rel-Vol-Err:  0.0
 
MODFLOW ITER.#  NEWTON-RAPHSON ITER.#   MAXIMUM NODE HEAD CHANGE
         1                   1                  0.0000000000
         1                   2                  0.0000000000
         1                   3                  0.0000000000

 NO OUTPUT CONTROL FOR STRESS PERIOD      4   TIME STEP     3
 
 
 CFPM1 CRITERION OF CONVERGENCE:     0.1000000E-05
 CFPM1 MAXIMUM NUMBER OF ITERATIONS:   100
 
 
 CFPM1 RESULTS +++++++++++++++++++++++++++++++++++++++++++++++++++++++
 
 STRESS PERIOD/TIME STEP           4           3
 
NUMBER OF NEWTON RHAPSON ITERATIONS:     3
 
 ------- RESULTS OF FLOW CALCULATION -------
 
NODE#  NODE HEAD[M]   MATRIX HEAD [M] EXCHANGE [M^3/D]      CAD STORAGE    CADS RECHARGE         PFPSFLOW  DIRECT RECHARGE            QWELL             FHLQ           CAUCHY        CAUCHY LQ              QLH             QFIX
    1  20.00733          20.09757        -7.087780         0.000000         0.000000         0.000000         0.000000         0.000000         0.000000         0.000000         0.000000         0.000000         0.000000    
    2  20.00    FIX      20.00000         0.000000         0.000000         0.000000         0.000000         0.000000         0.000000         0.000000         0.000000         0.000000         0.000000        -79.90547    
    3  20.00726          20.09564        -20.82275         0.000000         0.000000         0.000000         0.000000         0.000000         0.000000         0.000000         0.000000         0.000000         0.000000    
    4  20.01036          20.19494        -28.99395         0.000000         0.000000         0.000000        0.3000000         0.000000         0.000000         0.000000         0.000000         0.000000         0.000000    
    5  20.01096          20.30000        -22.70100         0.000000         0.000000         0.000000         0.000000         0.000000         0.000000         0.000000         0.000000         0.000000         0.000000    
 
TUBE  B  E  FLOW          Q [M^3/D]       DIAM.[M]        LEN.[M]        RE         RESIDENCE TIME [D]
   1   1   3   TURB.         7.08778        0.10000       10.00000     1169.50541        0.01108
   2   2   3   TURB.       -79.90547        0.10000       10.00000    13184.64832        0.00098
   3   3   4   TURB.       -51.99495        0.10000       10.00000     8579.32580        0.00151
   4   4   5   TURB.       -22.70100        0.10000       10.00000     3745.73397        0.00346
 

    BUDGET OF THE PIPE SYSTEM OF TIMESTEP    3 IN STRESS PERIOD    4
------------------------------------------------------------------------

  TOTAL SIMULATION TIME   330.000000000000      S
 
        CUMULATIVE VALUES (L**3)        RATES THIS TIME STEP (L**3/T)

            IN:                               IN:
     CONSTANT HEAD =   0.0000000          CONSTANT HEAD =   0.0000000    
   MATRIX EXCHANGE =   26269.579        MATRIX EXCHANGE =   79.605473    
     PIPE RECHARGE =   69.000000          PIPE RECHARGE =  0.30000000    
       PFP STORAGE =   0.0000000            PFP STORAGE =   0.0000000    

     CUMULATIVE IN =   26338.579               TOTAL IN =   79.905473    

           OUT:                               OUT:
     CONSTANT HEAD =   26338.579          CONSTANT HEAD =   79.905473    
   MATRIX EXCHANGE =   0.0000000        MATRIX EXCHANGE =   0.0000000    
     PIPE RECHARGE =   0.0000000          PIPE RECHARGE =   0.0000000    
       PFP STORAGE =   0.0000000            PFP STORAGE =   0.0000000    

    CUMULATIVE OUT =   26338.579              TOTAL OUT =   79.905473    

          IN - OUT = -0.73487172E-09           IN - OUT = -0.94075858E-11
     PERCENT ERROR = -0.00                PERCENT ERROR = -0.00


 
 ------------------------NODE WATER BUDGET-----------------------
  STRESS PERIOD           4  TIME STEP           3
 TOTAL SIMULATION TIME   330.000000000000     
 
 FLOW TO THE NODE IN M^3/D
 
 NODE     FIXED HEAD     RECHARGE        QWELL  MATRIX EXCH      STORAGE      TUBE_IN     TUBE_OUT         CADS     FHLQ(LQ)       CAUCHY   CAUCHY(LQ)          QLH     IN - OUT
    1     0.0000       0.0000       0.0000       7.0878       0.0000       0.0000      -7.0878       0.0000       0.0000       0.0000       0.0000       0.0000      0.12285E-09
    2    -79.905       0.0000       0.0000       0.0000       0.0000       79.905       0.0000       0.0000       0.0000       0.0000       0.0000       0.0000       0.0000    
    3     0.0000       0.0000       0.0000       20.823       0.0000       59.083      -79.905       0.0000       0.0000       0.0000       0.0000       0.0000     -0.15237E-09
    4     0.0000      0.30000       0.0000       28.994       0.0000       22.701      -51.995       0.0000       0.0000       0.0000       0.0000       0.0000      0.27804E-10
    5     0.0000       0.0000       0.0000       22.701       0.0000       0.0000      -22.701       0.0000       0.0000       0.0000       0.0000       0.0000     -0.76881E-11
     1 CALLS TO PCG ROUTINE FOR TIME STEP   3 IN STRESS PERIOD    4
     1 TOTAL ITERATIONS
 
 SOLVING FOR HEAD 
MODFLOW ITER.#  NEWTON-RAPHSON ITER.#   MAXIMUM NODE HEAD CHANGE
         1                   1                  0.0000000000
         1                   2                  0.0000000000
         1                   3                  0.0000000000


Solver Convergence Information:
                              HClose:  1.2049028E-10
                              RClose:  5.2858377E-7
                           L2-RClose:  9.8666698E-7
                         Rel-Vol-Err:  0.0
 
MODFLOW ITER.#  NEWTON-RAPHSON ITER.#   MAXIMUM NODE HEAD CHANGE
         1                   1                  0.0000000000
         1                   2                  0.0000000000
         1                   3                  0.0000000000

 NO OUTPUT CONTROL FOR STRESS PERIOD      4   TIME STEP     4
 
 
 CFPM1 CRITERION OF CONVERGENCE:     0.1000000E-05
 CFPM1 MAXIMUM NUMBER OF ITERATIONS:   100
 
 
 CFPM1 RESULTS +++++++++++++++++++++++++++++++++++++++++++++++++++++++
 
 STRESS PERIOD/TIME STEP           4           4
 
NUMBER OF NEWTON RHAPSON ITERATIONS:     3
 
 ------- RESULTS OF FLOW CALCULATION -------
 
NODE#  NODE HEAD[M]   MATRIX HEAD [M] EXCHANGE [M^3/D]      CAD STORAGE    CADS RECHARGE         PFPSFLOW  DIRECT RECHARGE            QWELL             FHLQ           CAUCHY        CAUCHY LQ              QLH             QFIX
    1  20.00733          20.09757        -7.087780         0.000000         0.000000         0.000000         0.000000         0.000000         0.000000         0.000000         0.000000         0.000000         0.000000    
    2  20.00    FIX      20.00000         0.000000         0.000000         0.000000         0.000000         0.000000         0.000000         0.000000         0.000000         0.000000         0.000000        -79.90547    
    3  20.00726          20.09564        -20.82275         0.000000         0.000000         0.000000         0.000000         0.000000         0.000000         0.000000         0.000000         0.000000         0.000000    
    4  20.01036          20.19494        -28.99395         0.000000         0.000000         0.000000        0.3000000         0.000000         0.000000         0.000000         0.000000         0.000000         0.000000    
    5  20.01096          20.30000        -22.70100         0.000000         0.000000         0.000000         0.000000         0.000000         0.000000         0.000000         0.000000         0.000000         0.000000    
 
TUBE  B  E  FLOW          Q [M^3/D]       DIAM.[M]        LEN.[M]        RE         RESIDENCE TIME [D]
   1   1   3   TURB.         7.08778        0.10000       10.00000     1169.50541        0.01108
   2   2   3   TURB.       -79.90547        0.10000       10.00000    13184.64832        0.00098
   3   3   4   TURB.       -51.99495        0.10000       10.00000     8579.32580        0.00151
   4   4   5   TURB.       -22.70100        0.10000       10.00000     3745.73397        0.00346
 

    BUDGET OF THE PIPE SYSTEM OF TIMESTEP    4 IN STRESS PERIOD    4
------------------------------------------------------------------------

  TOTAL SIMULATION TIME   340.000000000000      S
 
        CUMULATIVE VALUES (L**3)        RATES THIS TIME STEP (L**3/T)

            IN:                               IN:
     CONSTANT HEAD =   0.0000000          CONSTANT HEAD =   0.0000000    
   MATRIX EXCHANGE =   27065.633        MATRIX EXCHANGE =   79.605473    
     PIPE RECHARGE =   72.000000          PIPE RECHARGE =  0.30000000    
       PFP STORAGE =   0.0000000            PFP STORAGE =   0.0000000    

     CUMULATIVE IN =   27137.633               TOTAL IN =   79.905473    

           OUT:                               OUT:
     CONSTANT HEAD =   27137.633          CONSTANT HEAD =   79.905473    
   MATRIX EXCHANGE =   0.0000000        MATRIX EXCHANGE =   0.0000000    
     PIPE RECHARGE =   0.0000000          PIPE RECHARGE =   0.0000000    
       PFP STORAGE =   0.0000000            PFP STORAGE =   0.0000000    

    CUMULATIVE OUT =   27137.633              TOTAL OUT =   79.905473    

          IN - OUT = -0.68030204E-09           IN - OUT =  0.52722271E-11
     PERCENT ERROR = -0.00                PERCENT ERROR =  0.00


 
 ------------------------NODE WATER BUDGET-----------------------
  STRESS PERIOD           4  TIME STEP           4
 TOTAL SIMULATION TIME   340.000000000000     
 
 FLOW TO THE NODE IN M^3/D
 
 NODE     FIXED HEAD     RECHARGE        QWELL  MATRIX EXCH      STORAGE      TUBE_IN     TUBE_OUT         CADS     FHLQ(LQ)       CAUCHY   CAUCHY(LQ)          QLH     IN - OUT
    1     0.0000       0.0000       0.0000       7.0878       0.0000       0.0000      -7.0878       0.0000       0.0000       0.0000       0.0000       0.0000     -0.10707E-09
    2    -79.905       0.0000       0.0000       0.0000       0.0000       79.905       0.0000       0.0000       0.0000       0.0000       0.0000       0.0000       0.0000    
    3     0.0000       0.0000       0.0000       20.823       0.0000       59.083      -79.905       0.0000       0.0000       0.0000       0.0000       0.0000      0.13345E-09
    4     0.0000      0.30000       0.0000       28.994       0.0000       22.701      -51.995       0.0000       0.0000       0.0000       0.0000       0.0000     -0.23668E-10
    5     0.0000       0.0000       0.0000       22.701       0.0000       0.0000      -22.701       0.0000       0.0000       0.0000       0.0000       0.0000      0.25686E-11
     1 CALLS TO PCG ROUTINE FOR TIME STEP   4 IN STRESS PERIOD    4
     1 TOTAL ITERATIONS
 
 SOLVING FOR HEAD 
MODFLOW ITER.#  NEWTON-RAPHSON ITER.#   MAXIMUM NODE HEAD CHANGE
         1                   1                  0.0000000000
         1                   2                  0.0000000000
         1                   3                  0.0000000000


Solver Convergence Information:
                              HClose:  5.7450933E-11
                              RClose:  2.5372719E-7
                           L2-RClose:  4.8860025E-7
                         Rel-Vol-Err:  0.0
 
MODFLOW ITER.#  NEWTON-RAPHSON ITER.#   MAXIMUM NODE HEAD CHANGE
         1                   1                  0.0000000000
         1                   2                  0.0000000000
         1                   3                  0.0000000000

 NO OUTPUT CONTROL FOR STRESS PERIOD      4   TIME STEP     5
 
 
 CFPM1 CRITERION OF CONVERGENCE:     0.1000000E-05
 CFPM1 MAXIMUM NUMBER OF ITERATIONS:   100
 
 
 CFPM1 RESULTS +++++++++++++++++++++++++++++++++++++++++++++++++++++++
 
 STRESS PERIOD/TIME STEP           4           5
 
NUMBER OF NEWTON RHAPSON ITERATIONS:     3
 
 ------- RESULTS OF FLOW CALCULATION -------
 
NODE#  NODE HEAD[M]   MATRIX HEAD [M] EXCHANGE [M^3/D]      CAD STORAGE    CADS RECHARGE         PFPSFLOW  DIRECT RECHARGE            QWELL             FHLQ           CAUCHY        CAUCHY LQ              QLH             QFIX
    1  20.00733          20.09757        -7.087780         0.000000         0.000000         0.000000         0.000000         0.000000         0.000000         0.000000         0.000000         0.000000         0.000000    
    2  20.00    FIX      20.00000         0.000000         0.000000         0.000000         0.000000         0.000000         0.000000         0.000000         0.000000         0.000000         0.000000        -79.90547    
    3  20.00726          20.09564        -20.82275         0.000000         0.000000         0.000000         0.000000         0.000000         0.000000         0.000000         0.000000         0.000000         0.000000    
    4  20.01036          20.19494        -28.99395         0.000000         0.000000         0.000000        0.3000000         0.000000         0.000000         0.000000         0.000000         0.000000         0.000000    
    5  20.01096          20.30000        -22.70100         0.000000         0.000000         0.000000         0.000000         0.000000         0.000000         0.000000         0.000000         0.000000         0.000000    
 
TUBE  B  E  FLOW          Q [M^3/D]       DIAM.[M]        LEN.[M]        RE         RESIDENCE TIME [D]
   1   1   3   TURB.         7.08778        0.10000       10.00000     1169.50541        0.01108
   2   2   3   TURB.       -79.90547        0.10000       10.00000    13184.64832        0.00098
   3   3   4   TURB.       -51.99495        0.10000       10.00000     8579.32580        0.00151
   4   4   5   TURB.       -22.70100        0.10000       10.00000     3745.73397        0.00346
 

    BUDGET OF THE PIPE SYSTEM OF TIMESTEP    5 IN STRESS PERIOD    4
------------------------------------------------------------------------

  TOTAL SIMULATION TIME   350.000000000000      S
 
        CUMULATIVE VALUES (L**3)        RATES THIS TIME STEP (L**3/T)

            IN:                               IN:
     CONSTANT HEAD =   0.0000000          CONSTANT HEAD =   0.0000000    
   MATRIX EXCHANGE =   27861.688        MATRIX EXCHANGE =   79.605473    
     PIPE RECHARGE =   75.000000          PIPE RECHARGE =  0.30000000    
       PFP STORAGE =   0.0000000            PFP STORAGE =   0.0000000    

     CUMULATIVE IN =   27936.688               TOTAL IN =   79.905473    

           OUT:                               OUT:
     CONSTANT HEAD =   27936.688          CONSTANT HEAD =   79.905473    
   MATRIX EXCHANGE =   0.0000000        MATRIX EXCHANGE =   0.0000000    
     PIPE RECHARGE =   0.0000000          PIPE RECHARGE =   0.0000000    
       PFP STORAGE =   0.0000000            PFP STORAGE =   0.0000000    

    CUMULATIVE OUT =   27936.688              TOTAL OUT =   79.905473    

          IN - OUT = -0.62209438E-09           IN - OUT =  0.57127636E-11
     PERCENT ERROR = -0.00                PERCENT ERROR =  0.00


 
 ------------------------NODE WATER BUDGET-----------------------
  STRESS PERIOD           4  TIME STEP           5
 TOTAL SIMULATION TIME   350.000000000000     
 
 FLOW TO THE NODE IN M^3/D
 
 NODE     FIXED HEAD     RECHARGE        QWELL  MATRIX EXCH      STORAGE      TUBE_IN     TUBE_OUT         CADS     FHLQ(LQ)       CAUCHY   CAUCHY(LQ)          QLH     IN - OUT
    1     0.0000       0.0000       0.0000       7.0878       0.0000       0.0000      -7.0878       0.0000       0.0000       0.0000       0.0000       0.0000     -0.12510E-10
    2    -79.905       0.0000       0.0000       0.0000       0.0000       79.905       0.0000       0.0000       0.0000       0.0000       0.0000       0.0000       0.0000    
    3     0.0000       0.0000       0.0000       20.823       0.0000       59.083      -79.905       0.0000       0.0000       0.0000       0.0000       0.0000      0.29857E-10
    4     0.0000      0.30000       0.0000       28.994       0.0000       22.701      -51.995       0.0000       0.0000       0.0000       0.0000       0.0000     -0.48317E-10
    5     0.0000       0.0000       0.0000       22.701       0.0000       0.0000      -22.701       0.0000       0.0000       0.0000       0.0000       0.0000      0.36685E-10
     1 CALLS TO PCG ROUTINE FOR TIME STEP   5 IN STRESS PERIOD    4
     1 TOTAL ITERATIONS

 MAXIMUM HEAD CHANGE FOR EACH ITERATION (1 INDICATES THE FIRST INNER ITERATION):

    HEAD CHANGE    HEAD CHANGE    HEAD CHANGE    HEAD CHANGE    HEAD CHANGE 
   LAYER,ROW,COL  LAYER,ROW,COL  LAYER,ROW,COL  LAYER,ROW,COL  LAYER,ROW,COL
 ---------------------------------------------------------------------------
  1 -0.5745E-10
   (  3,  2,  3)

 MAXIMUM RESIDUAL FOR EACH ITERATION (1 INDICATES THE FIRST INNER ITERATION):

    RESIDUAL       RESIDUAL       RESIDUAL       RESIDUAL       RESIDUAL    
   LAYER,ROW,COL  LAYER,ROW,COL  LAYER,ROW,COL  LAYER,ROW,COL  LAYER,ROW,COL
 ---------------------------------------------------------------------------
  1 -0.2537E-06
   (  1,  3,  2)


 
 SOLVING FOR HEAD 
MODFLOW ITER.#  NEWTON-RAPHSON ITER.#   MAXIMUM NODE HEAD CHANGE
         1                   1                  0.0000000000
         1                   2                  0.0000000000
         1                   3                  0.0000000000


Solver Convergence Information:
                              HClose:  2.8165914E-11
                              RClose:  1.1886004E-7
                           L2-RClose:  2.1864730E-7
                         Rel-Vol-Err:  0.0
 
MODFLOW ITER.#  NEWTON-RAPHSON ITER.#   MAXIMUM NODE HEAD CHANGE
         1                   1                  0.0000000000
         1                   2                  0.0000000000
         1                   3                  0.0000000000

 NO OUTPUT CONTROL FOR STRESS PERIOD      4   TIME STEP     6
 
 
 CFPM1 CRITERION OF CONVERGENCE:     0.1000000E-05
 CFPM1 MAXIMUM NUMBER OF ITERATIONS:   100
 
 
 CFPM1 RESULTS +++++++++++++++++++++++++++++++++++++++++++++++++++++++
 
 STRESS PERIOD/TIME STEP           4           6
 
NUMBER OF NEWTON RHAPSON ITERATIONS:     3
 
 ------- RESULTS OF FLOW CALCULATION -------
 
NODE#  NODE HEAD[M]   MATRIX HEAD [M] EXCHANGE [M^3/D]      CAD STORAGE    CADS RECHARGE         PFPSFLOW  DIRECT RECHARGE            QWELL             FHLQ           CAUCHY        CAUCHY LQ              QLH             QFIX
    1  20.00733          20.09757        -7.087780         0.000000         0.000000         0.000000         0.000000         0.000000         0.000000         0.000000         0.000000         0.000000         0.000000    
    2  20.00    FIX      20.00000         0.000000         0.000000         0.000000         0.000000         0.000000         0.000000         0.000000         0.000000         0.000000         0.000000        -79.90547    
    3  20.00726          20.09564        -20.82275         0.000000         0.000000         0.000000         0.000000         0.000000         0.000000         0.000000         0.000000         0.000000         0.000000    
    4  20.01036          20.19494        -28.99395         0.000000         0.000000         0.000000        0.3000000         0.000000         0.000000         0.000000         0.000000         0.000000         0.000000    
    5  20.01096          20.30000        -22.70100         0.000000         0.000000         0.000000         0.000000         0.000000         0.000000         0.000000         0.000000         0.000000         0.000000    
 
TUBE  B  E  FLOW          Q [M^3/D]       DIAM.[M]        LEN.[M]        RE         RESIDENCE TIME [D]
   1   1   3   TURB.         7.08778        0.10000       10.00000     1169.50541        0.01108
   2   2   3   TURB.       -79.90547        0.10000       10.00000    13184.64832        0.00098
   3   3   4   TURB.       -51.99495        0.10000       10.00000     8579.32580        0.00151
   4   4   5   TURB.       -22.70100        0.10000       10.00000     3745.73397        0.00346
 

    BUDGET OF THE PIPE SYSTEM OF TIMESTEP    6 IN STRESS PERIOD    4
------------------------------------------------------------------------

  TOTAL SIMULATION TIME   360.000000000000      S
 
        CUMULATIVE VALUES (L**3)        RATES THIS TIME STEP (L**3/T)

            IN:                               IN:
     CONSTANT HEAD =   0.0000000          CONSTANT HEAD =   0.0000000    
   MATRIX EXCHANGE =   28657.743        MATRIX EXCHANGE =   79.605473    
     PIPE RECHARGE =   78.000000          PIPE RECHARGE =  0.30000000    
       PFP STORAGE =   0.0000000            PFP STORAGE =   0.0000000    

     CUMULATIVE IN =   28735.743               TOTAL IN =   79.905473    

           OUT:                               OUT:
     CONSTANT HEAD =   28735.743          CONSTANT HEAD =   79.905473    
   MATRIX EXCHANGE =   0.0000000        MATRIX EXCHANGE =   0.0000000    
     PIPE RECHARGE =   0.0000000          PIPE RECHARGE =   0.0000000    
       PFP STORAGE =   0.0000000            PFP STORAGE =   0.0000000    

    CUMULATIVE OUT =   28735.743              TOTAL OUT =   79.905473    

          IN - OUT = -0.60026650E-09           IN - OUT =  0.19184654E-11
     PERCENT ERROR = -0.00                PERCENT ERROR =  0.00


 
 ------------------------NODE WATER BUDGET-----------------------
  STRESS PERIOD           4  TIME STEP           6
 TOTAL SIMULATION TIME   360.000000000000     
 
 FLOW TO THE NODE IN M^3/D
 
 NODE     FIXED HEAD     RECHARGE        QWELL  MATRIX EXCH      STORAGE      TUBE_IN     TUBE_OUT         CADS     FHLQ(LQ)       CAUCHY   CAUCHY(LQ)          QLH     IN - OUT
    1     0.0000       0.0000       0.0000       7.0878       0.0000       0.0000      -7.0878       0.0000       0.0000       0.0000       0.0000       0.0000     -0.10495E-09
    2    -79.905       0.0000       0.0000       0.0000       0.0000       79.905       0.0000       0.0000       0.0000       0.0000       0.0000       0.0000       0.0000    
    3     0.0000       0.0000       0.0000       20.823       0.0000       59.083      -79.905       0.0000       0.0000       0.0000       0.0000       0.0000      0.12101E-09
    4     0.0000      0.30000       0.0000       28.994       0.0000       22.701      -51.995       0.0000       0.0000       0.0000       0.0000       0.0000     -0.54506E-10
    5     0.0000       0.0000       0.0000       22.701       0.0000       0.0000      -22.701       0.0000       0.0000       0.0000       0.0000       0.0000      0.40384E-10
     1 CALLS TO PCG ROUTINE FOR TIME STEP   6 IN STRESS PERIOD    4
     1 TOTAL ITERATIONS
 
 SOLVING FOR HEAD 
MODFLOW ITER.#  NEWTON-RAPHSON ITER.#   MAXIMUM NODE HEAD CHANGE
         1                   1                  0.0000000000
         1                   2                  0.0000000000
         1                   3                  0.0000000000


Solver Convergence Information:
                              HClose:  1.2754242E-11
                              RClose:  5.7218131E-8
                           L2-RClose:  1.0870070E-7
                         Rel-Vol-Err:  0.0
 
MODFLOW ITER.#  NEWTON-RAPHSON ITER.#   MAXIMUM NODE HEAD CHANGE
         1                   1                  0.0000000000
         1                   2                  0.0000000000
         1                   3                  0.0000000000

 NO OUTPUT CONTROL FOR STRESS PERIOD      4   TIME STEP     7
 
 
 CFPM1 CRITERION OF CONVERGENCE:     0.1000000E-05
 CFPM1 MAXIMUM NUMBER OF ITERATIONS:   100
 
 
 CFPM1 RESULTS +++++++++++++++++++++++++++++++++++++++++++++++++++++++
 
 STRESS PERIOD/TIME STEP           4           7
 
NUMBER OF NEWTON RHAPSON ITERATIONS:     3
 
 ------- RESULTS OF FLOW CALCULATION -------
 
NODE#  NODE HEAD[M]   MATRIX HEAD [M] EXCHANGE [M^3/D]      CAD STORAGE    CADS RECHARGE         PFPSFLOW  DIRECT RECHARGE            QWELL             FHLQ           CAUCHY        CAUCHY LQ              QLH             QFIX
    1  20.00733          20.09757        -7.087780         0.000000         0.000000         0.000000         0.000000         0.000000         0.000000         0.000000         0.000000         0.000000         0.000000    
    2  20.00    FIX      20.00000         0.000000         0.000000         0.000000         0.000000         0.000000         0.000000         0.000000         0.000000         0.000000         0.000000        -79.90547    
    3  20.00726          20.09564        -20.82275         0.000000         0.000000         0.000000         0.000000         0.000000         0.000000         0.000000         0.000000         0.000000         0.000000    
    4  20.01036          20.19494        -28.99395         0.000000         0.000000         0.000000        0.3000000         0.000000         0.000000         0.000000         0.000000         0.000000         0.000000    
    5  20.01096          20.30000        -22.70100         0.000000         0.000000         0.000000         0.000000         0.000000         0.000000         0.000000         0.000000         0.000000         0.000000    
 
TUBE  B  E  FLOW          Q [M^3/D]       DIAM.[M]        LEN.[M]        RE         RESIDENCE TIME [D]
   1   1   3   TURB.         7.08778        0.10000       10.00000     1169.50541        0.01108
   2   2   3   TURB.       -79.90547        0.10000       10.00000    13184.64832        0.00098
   3   3   4   TURB.       -51.99495        0.10000       10.00000     8579.32580        0.00151
   4   4   5   TURB.       -22.70100        0.10000       10.00000     3745.73397        0.00346
 

    BUDGET OF THE PIPE SYSTEM OF TIMESTEP    7 IN STRESS PERIOD    4
------------------------------------------------------------------------

  TOTAL SIMULATION TIME   370.000000000000      S
 
        CUMULATIVE VALUES (L**3)        RATES THIS TIME STEP (L**3/T)

            IN:                               IN:
     CONSTANT HEAD =   0.0000000          CONSTANT HEAD =   0.0000000    
   MATRIX EXCHANGE =   29453.797        MATRIX EXCHANGE =   79.605473    
     PIPE RECHARGE =   81.000000          PIPE RECHARGE =  0.30000000    
       PFP STORAGE =   0.0000000            PFP STORAGE =   0.0000000    

     CUMULATIVE IN =   29534.797               TOTAL IN =   79.905473    

           OUT:                               OUT:
     CONSTANT HEAD =   29534.797          CONSTANT HEAD =   79.905473    
   MATRIX EXCHANGE =   0.0000000        MATRIX EXCHANGE =   0.0000000    
     PIPE RECHARGE =   0.0000000          PIPE RECHARGE =   0.0000000    
       PFP STORAGE =   0.0000000            PFP STORAGE =   0.0000000    

    CUMULATIVE OUT =   29534.797              TOTAL OUT =   79.905473    

          IN - OUT = -0.54933480E-09           IN - OUT =  0.46895821E-11
     PERCENT ERROR = -0.00                PERCENT ERROR =  0.00


 
 ------------------------NODE WATER BUDGET-----------------------
  STRESS PERIOD           4  TIME STEP           7
 TOTAL SIMULATION TIME   370.000000000000     
 
 FLOW TO THE NODE IN M^3/D
 
 NODE     FIXED HEAD     RECHARGE        QWELL  MATRIX EXCH      STORAGE      TUBE_IN     TUBE_OUT         CADS     FHLQ(LQ)       CAUCHY   CAUCHY(LQ)          QLH     IN - OUT
    1     0.0000       0.0000       0.0000       7.0878       0.0000       0.0000      -7.0878       0.0000       0.0000       0.0000       0.0000       0.0000      0.77751E-11
    2    -79.905       0.0000       0.0000       0.0000       0.0000       79.905       0.0000       0.0000       0.0000       0.0000       0.0000       0.0000       0.0000    
    3     0.0000       0.0000       0.0000       20.823       0.0000       59.083      -79.905       0.0000       0.0000       0.0000       0.0000       0.0000     -0.26432E-11
    4     0.0000      0.30000       0.0000       28.994       0.0000       22.701      -51.995       0.0000       0.0000       0.0000       0.0000       0.0000      0.33474E-10
    5     0.0000       0.0000       0.0000       22.701       0.0000       0.0000      -22.701       0.0000       0.0000       0.0000       0.0000       0.0000     -0.33911E-10
     1 CALLS TO PCG ROUTINE FOR TIME STEP   7 IN STRESS PERIOD    4
     1 TOTAL ITERATIONS
 
 SOLVING FOR HEAD 
MODFLOW ITER.#  NEWTON-RAPHSON ITER.#   MAXIMUM NODE HEAD CHANGE
         1                   1                  0.0000000000
         1                   2                  0.0000000000
         1                   3                  0.0000000000


Solver Convergence Information:
                              HClose:  6.5369932E-12
                              RClose:  2.6833732E-8
                           L2-RClose:  4.9395743E-8
                         Rel-Vol-Err:  0.0
 
MODFLOW ITER.#  NEWTON-RAPHSON ITER.#   MAXIMUM NODE HEAD CHANGE
         1                   1                  0.0000000000
         1                   2                  0.0000000000
         1                   3                  0.0000000000

 NO OUTPUT CONTROL FOR STRESS PERIOD      4   TIME STEP     8
 
 
 CFPM1 CRITERION OF CONVERGENCE:     0.1000000E-05
 CFPM1 MAXIMUM NUMBER OF ITERATIONS:   100
 
 
 CFPM1 RESULTS +++++++++++++++++++++++++++++++++++++++++++++++++++++++
 
 STRESS PERIOD/TIME STEP           4           8
 
NUMBER OF NEWTON RHAPSON ITERATIONS:     3
 
 ------- RESULTS OF FLOW CALCULATION -------
 
NODE#  NODE HEAD[M]   MATRIX HEAD [M] EXCHANGE [M^3/D]      CAD STORAGE    CADS RECHARGE         PFPSFLOW  DIRECT RECHARGE            QWELL             FHLQ           CAUCHY        CAUCHY LQ              QLH             QFIX
    1  20.00733          20.09757        -7.087780         0.000000         0.000000         0.000000         0.000000         0.000000         0.000000         0.000000         0.000000         0.000000         0.000000    
    2  20.00    FIX      20.00000         0.000000         0.000000         0.000000         0.000000         0.000000         0.000000         0.000000         0.000000         0.000000         0.000000        -79.90547    
    3  20.00726          20.09564        -20.82275         0.000000         0.000000         0.000000         0.000000         0.000000         0.000000         0.000000         0.000000         0.000000         0.000000    
    4  20.01036          20.19494        -28.99395         0.000000         0.000000         0.000000        0.3000000         0.000000         0.000000         0.000000         0.000000         0.000000         0.000000    
    5  20.01096          20.30000        -22.70100         0.000000         0.000000         0.000000         0.000000         0.000000         0.000000         0.000000         0.000000         0.000000         0.000000    
 
TUBE  B  E  FLOW          Q [M^3/D]       DIAM.[M]        LEN.[M]        RE         RESIDENCE TIME [D]
   1   1   3   TURB.         7.08778        0.10000       10.00000     1169.50541        0.01108
   2   2   3   TURB.       -79.90547        0.10000       10.00000    13184.64832        0.00098
   3   3   4   TURB.       -51.99495        0.10000       10.00000     8579.32580        0.00151
   4   4   5   TURB.       -22.70100        0.10000       10.00000     3745.73397        0.00346
 

    BUDGET OF THE PIPE SYSTEM OF TIMESTEP    8 IN STRESS PERIOD    4
------------------------------------------------------------------------

  TOTAL SIMULATION TIME   380.000000000000      S
 
        CUMULATIVE VALUES (L**3)        RATES THIS TIME STEP (L**3/T)

            IN:                               IN:
     CONSTANT HEAD =   0.0000000          CONSTANT HEAD =   0.0000000    
   MATRIX EXCHANGE =   30249.852        MATRIX EXCHANGE =   79.605473    
     PIPE RECHARGE =   84.000000          PIPE RECHARGE =  0.30000000    
       PFP STORAGE =   0.0000000            PFP STORAGE =   0.0000000    

     CUMULATIVE IN =   30333.852               TOTAL IN =   79.905473    

           OUT:                               OUT:
     CONSTANT HEAD =   30333.852          CONSTANT HEAD =   79.905473    
   MATRIX EXCHANGE =   0.0000000        MATRIX EXCHANGE =   0.0000000    
     PIPE RECHARGE =   0.0000000          PIPE RECHARGE =   0.0000000    
       PFP STORAGE =   0.0000000            PFP STORAGE =   0.0000000    

    CUMULATIVE OUT =   30333.852              TOTAL OUT =   79.905473    

          IN - OUT = -0.58571459E-09           IN - OUT = -0.36521897E-11
     PERCENT ERROR = -0.00                PERCENT ERROR = -0.00


 
 ------------------------NODE WATER BUDGET-----------------------
  STRESS PERIOD           4  TIME STEP           8
 TOTAL SIMULATION TIME   380.000000000000     
 
 FLOW TO THE NODE IN M^3/D
 
 NODE     FIXED HEAD     RECHARGE        QWELL  MATRIX EXCH      STORAGE      TUBE_IN     TUBE_OUT         CADS     FHLQ(LQ)       CAUCHY   CAUCHY(LQ)          QLH     IN - OUT
    1     0.0000       0.0000       0.0000       7.0878       0.0000       0.0000      -7.0878       0.0000       0.0000       0.0000       0.0000       0.0000     -0.65917E-10
    2    -79.905       0.0000       0.0000       0.0000       0.0000       79.905       0.0000       0.0000       0.0000       0.0000       0.0000       0.0000       0.0000    
    3     0.0000       0.0000       0.0000       20.823       0.0000       59.083      -79.905       0.0000       0.0000       0.0000       0.0000       0.0000      0.53191E-10
    4     0.0000      0.30000       0.0000       28.994       0.0000       22.701      -51.995       0.0000       0.0000       0.0000       0.0000       0.0000     -0.81357E-11
    5     0.0000       0.0000       0.0000       22.701       0.0000       0.0000      -22.701       0.0000       0.0000       0.0000       0.0000       0.0000      0.17224E-10
     1 CALLS TO PCG ROUTINE FOR TIME STEP   8 IN STRESS PERIOD    4
     1 TOTAL ITERATIONS
 
 SOLVING FOR HEAD 
MODFLOW ITER.#  NEWTON-RAPHSON ITER.#   MAXIMUM NODE HEAD CHANGE
         1                   1                  0.0000000000
         1                   2                  0.0000000000
         1                   3                  0.0000000000


Solver Convergence Information:
                              HClose:  2.8812508E-12
                              RClose:  1.2980308E-8
                           L2-RClose:  2.4591204E-8
                         Rel-Vol-Err:  0.0
 
MODFLOW ITER.#  NEWTON-RAPHSON ITER.#   MAXIMUM NODE HEAD CHANGE
         1                   1                  0.0000000000
         1                   2                  0.0000000000
         1                   3                  0.0000000000

 NO OUTPUT CONTROL FOR STRESS PERIOD      4   TIME STEP     9
 
 
 CFPM1 CRITERION OF CONVERGENCE:     0.1000000E-05
 CFPM1 MAXIMUM NUMBER OF ITERATIONS:   100
 
 
 CFPM1 RESULTS +++++++++++++++++++++++++++++++++++++++++++++++++++++++
 
 STRESS PERIOD/TIME STEP           4           9
 
NUMBER OF NEWTON RHAPSON ITERATIONS:     3
 
 ------- RESULTS OF FLOW CALCULATION -------
 
NODE#  NODE HEAD[M]   MATRIX HEAD [M] EXCHANGE [M^3/D]      CAD STORAGE    CADS RECHARGE         PFPSFLOW  DIRECT RECHARGE            QWELL             FHLQ           CAUCHY        CAUCHY LQ              QLH             QFIX
    1  20.00733          20.09757        -7.087780         0.000000         0.000000         0.000000         0.000000         0.000000         0.000000         0.000000         0.000000         0.000000         0.000000    
    2  20.00    FIX      20.00000         0.000000         0.000000         0.000000         0.000000         0.000000         0.000000         0.000000         0.000000         0.000000         0.000000        -79.90547    
    3  20.00726          20.09564        -20.82275         0.000000         0.000000         0.000000         0.000000         0.000000         0.000000         0.000000         0.000000         0.000000         0.000000    
    4  20.01036          20.19494        -28.99395         0.000000         0.000000         0.000000        0.3000000         0.000000         0.000000         0.000000         0.000000         0.000000         0.000000    
    5  20.01096          20.30000        -22.70100         0.000000         0.000000         0.000000         0.000000         0.000000         0.000000         0.000000         0.000000         0.000000         0.000000    
 
TUBE  B  E  FLOW          Q [M^3/D]       DIAM.[M]        LEN.[M]        RE         RESIDENCE TIME [D]
   1   1   3   TURB.         7.08778        0.10000       10.00000     1169.50541        0.01108
   2   2   3   TURB.       -79.90547        0.10000       10.00000    13184.64832        0.00098
   3   3   4   TURB.       -51.99495        0.10000       10.00000     8579.32580        0.00151
   4   4   5   TURB.       -22.70100        0.10000       10.00000     3745.73397        0.00346
 

    BUDGET OF THE PIPE SYSTEM OF TIMESTEP    9 IN STRESS PERIOD    4
------------------------------------------------------------------------

  TOTAL SIMULATION TIME   390.000000000000      S
 
        CUMULATIVE VALUES (L**3)        RATES THIS TIME STEP (L**3/T)

            IN:                               IN:
     CONSTANT HEAD =   0.0000000          CONSTANT HEAD =   0.0000000    
   MATRIX EXCHANGE =   31045.907        MATRIX EXCHANGE =   79.605473    
     PIPE RECHARGE =   87.000000          PIPE RECHARGE =  0.30000000    
       PFP STORAGE =   0.0000000            PFP STORAGE =   0.0000000    

     CUMULATIVE IN =   31132.907               TOTAL IN =   79.905473    

           OUT:                               OUT:
     CONSTANT HEAD =   31132.907          CONSTANT HEAD =   79.905473    
   MATRIX EXCHANGE =   0.0000000        MATRIX EXCHANGE =   0.0000000    
     PIPE RECHARGE =   0.0000000          PIPE RECHARGE =   0.0000000    
       PFP STORAGE =   0.0000000            PFP STORAGE =   0.0000000    

    CUMULATIVE OUT =   31132.907              TOTAL OUT =   79.905473    

          IN - OUT = -0.61118044E-09           IN - OUT = -0.28705927E-11
     PERCENT ERROR = -0.00                PERCENT ERROR = -0.00


 
 ------------------------NODE WATER BUDGET-----------------------
  STRESS PERIOD           4  TIME STEP           9
 TOTAL SIMULATION TIME   390.000000000000     
 
 FLOW TO THE NODE IN M^3/D
 
 NODE     FIXED HEAD     RECHARGE        QWELL  MATRIX EXCH      STORAGE      TUBE_IN     TUBE_OUT         CADS     FHLQ(LQ)       CAUCHY   CAUCHY(LQ)          QLH     IN - OUT
    1     0.0000       0.0000       0.0000       7.0878       0.0000       0.0000      -7.0878       0.0000       0.0000       0.0000       0.0000       0.0000     -0.34945E-10
    2    -79.905       0.0000       0.0000       0.0000       0.0000       79.905       0.0000       0.0000       0.0000       0.0000       0.0000       0.0000       0.0000    
    3     0.0000       0.0000       0.0000       20.823       0.0000       59.083      -79.905       0.0000       0.0000       0.0000       0.0000       0.0000      0.37019E-10
    4     0.0000      0.30000       0.0000       28.994       0.0000       22.701      -51.995       0.0000       0.0000       0.0000       0.0000       0.0000     -0.21046E-10
    5     0.0000       0.0000       0.0000       22.701       0.0000       0.0000      -22.701       0.0000       0.0000       0.0000       0.0000       0.0000      0.16108E-10
     1 CALLS TO PCG ROUTINE FOR TIME STEP   9 IN STRESS PERIOD    4
     1 TOTAL ITERATIONS
 
 SOLVING FOR HEAD 
MODFLOW ITER.#  NEWTON-RAPHSON ITER.#   MAXIMUM NODE HEAD CHANGE
         1                   1                  0.0000000000
         1                   2                  0.0000000000
         1                   3                  0.0000000000


Solver Convergence Information:
                              HClose:  1.5099033E-12
                              RClose:  6.1118044E-9
                           L2-RClose:  1.1328832E-8
                         Rel-Vol-Err:  0.0
 
MODFLOW ITER.#  NEWTON-RAPHSON ITER.#   MAXIMUM NODE HEAD CHANGE
         1                   1                  0.0000000000
         1                   2                  0.0000000000
         1                   3                  0.0000000000

 NO OUTPUT CONTROL FOR STRESS PERIOD      4   TIME STEP    10
 
 
 CFPM1 CRITERION OF CONVERGENCE:     0.1000000E-05
 CFPM1 MAXIMUM NUMBER OF ITERATIONS:   100
 
 
 CFPM1 RESULTS +++++++++++++++++++++++++++++++++++++++++++++++++++++++
 
 STRESS PERIOD/TIME STEP           4          10
 
NUMBER OF NEWTON RHAPSON ITERATIONS:     3
 
 ------- RESULTS OF FLOW CALCULATION -------
 
NODE#  NODE HEAD[M]   MATRIX HEAD [M] EXCHANGE [M^3/D]      CAD STORAGE    CADS RECHARGE         PFPSFLOW  DIRECT RECHARGE            QWELL             FHLQ           CAUCHY        CAUCHY LQ              QLH             QFIX
    1  20.00733          20.09757        -7.087780         0.000000         0.000000         0.000000         0.000000         0.000000         0.000000         0.000000         0.000000         0.000000         0.000000    
    2  20.00    FIX      20.00000         0.000000         0.000000         0.000000         0.000000         0.000000         0.000000         0.000000         0.000000         0.000000         0.000000        -79.90547    
    3  20.00726          20.09564        -20.82275         0.000000         0.000000         0.000000         0.000000         0.000000         0.000000         0.000000         0.000000         0.000000         0.000000    
    4  20.01036          20.19494        -28.99395         0.000000         0.000000         0.000000        0.3000000         0.000000         0.000000         0.000000         0.000000         0.000000         0.000000    
    5  20.01096          20.30000        -22.70100         0.000000         0.000000         0.000000         0.000000         0.000000         0.000000         0.000000         0.000000         0.000000         0.000000    
 
TUBE  B  E  FLOW          Q [M^3/D]       DIAM.[M]        LEN.[M]        RE         RESIDENCE TIME [D]
   1   1   3   TURB.         7.08778        0.10000       10.00000     1169.50541        0.01108
   2   2   3   TURB.       -79.90547        0.10000       10.00000    13184.64832        0.00098
   3   3   4   TURB.       -51.99495        0.10000       10.00000     8579.32580        0.00151
   4   4   5   TURB.       -22.70100        0.10000       10.00000     3745.73397        0.00346
 

    BUDGET OF THE PIPE SYSTEM OF TIMESTEP   10 IN STRESS PERIOD    4
------------------------------------------------------------------------

  TOTAL SIMULATION TIME   400.000000000000      S
 
        CUMULATIVE VALUES (L**3)        RATES THIS TIME STEP (L**3/T)

            IN:                               IN:
     CONSTANT HEAD =   0.0000000          CONSTANT HEAD =   0.0000000    
   MATRIX EXCHANGE =   31841.962        MATRIX EXCHANGE =   79.605473    
     PIPE RECHARGE =   90.000000          PIPE RECHARGE =  0.30000000    
       PFP STORAGE =   0.0000000            PFP STORAGE =   0.0000000    

     CUMULATIVE IN =   31931.962               TOTAL IN =   79.905473    

           OUT:                               OUT:
     CONSTANT HEAD =   31931.962          CONSTANT HEAD =   79.905473    
   MATRIX EXCHANGE =   0.0000000        MATRIX EXCHANGE =   0.0000000    
     PIPE RECHARGE =   0.0000000          PIPE RECHARGE =   0.0000000    
       PFP STORAGE =   0.0000000            PFP STORAGE =   0.0000000    

    CUMULATIVE OUT =   31931.962              TOTAL OUT =   79.905473    

          IN - OUT = -0.70576789E-09           IN - OUT = -0.91517904E-11
     PERCENT ERROR = -0.00                PERCENT ERROR = -0.00


 
 ------------------------NODE WATER BUDGET-----------------------
  STRESS PERIOD           4  TIME STEP          10
 TOTAL SIMULATION TIME   400.000000000000     
 
 FLOW TO THE NODE IN M^3/D
 
 NODE     FIXED HEAD     RECHARGE        QWELL  MATRIX EXCH      STORAGE      TUBE_IN     TUBE_OUT         CADS     FHLQ(LQ)       CAUCHY   CAUCHY(LQ)          QLH     IN - OUT
    1     0.0000       0.0000       0.0000       7.0878       0.0000       0.0000      -7.0878       0.0000       0.0000       0.0000       0.0000       0.0000     -0.22986E-11
    2    -79.905       0.0000       0.0000       0.0000       0.0000       79.905       0.0000       0.0000       0.0000       0.0000       0.0000       0.0000       0.0000    
    3     0.0000       0.0000       0.0000       20.823       0.0000       59.083      -79.905       0.0000       0.0000       0.0000       0.0000       0.0000     -0.18986E-10
    4     0.0000      0.30000       0.0000       28.994       0.0000       22.701      -51.995       0.0000       0.0000       0.0000       0.0000       0.0000      0.23448E-12
    5     0.0000       0.0000       0.0000       22.701       0.0000       0.0000      -22.701       0.0000       0.0000       0.0000       0.0000       0.0000      0.11923E-10
     1 CALLS TO PCG ROUTINE FOR TIME STEP  10 IN STRESS PERIOD    4
     1 TOTAL ITERATIONS

 MAXIMUM HEAD CHANGE FOR EACH ITERATION (1 INDICATES THE FIRST INNER ITERATION):

    HEAD CHANGE    HEAD CHANGE    HEAD CHANGE    HEAD CHANGE    HEAD CHANGE 
   LAYER,ROW,COL  LAYER,ROW,COL  LAYER,ROW,COL  LAYER,ROW,COL  LAYER,ROW,COL
 ---------------------------------------------------------------------------
  1  0.1511E-11
   (  1,  2,  3)

 MAXIMUM RESIDUAL FOR EACH ITERATION (1 INDICATES THE FIRST INNER ITERATION):

    RESIDUAL       RESIDUAL       RESIDUAL       RESIDUAL       RESIDUAL    
   LAYER,ROW,COL  LAYER,ROW,COL  LAYER,ROW,COL  LAYER,ROW,COL  LAYER,ROW,COL
 ---------------------------------------------------------------------------
  1 -0.6090E-08
   (  1,  3,  2)





  -------------------------------------------------------------------------------------
  VOLUMETRIC BUDGET FOR ENTIRE MODEL AT END OF TIME STEP   10 IN STRESS PERIOD      4
  -------------------------------------------------------------------------------------

     CUMULATIVE VOLUMES      L**3       RATES FOR THIS TIME STEP      L**3/T
     ------------------                 ------------------------

           IN:                                      IN:
           ---                                      ---
             STORAGE =       2.7877E-06               STORAGE =       4.0766E-17
       CONSTANT HEAD =      500234.0269         CONSTANT HEAD =        1250.3338
            RECHARGE =         630.0000              RECHARGE =           2.1000
               PIPES =           0.0000                 PIPES =           0.0000

            TOTAL IN =      500864.0269              TOTAL IN =        1252.4338

          OUT:                                     OUT:
          ----                                     ----
             STORAGE =       2.7877E-06               STORAGE =       2.3675E-15
       CONSTANT HEAD =      469022.0648         CONSTANT HEAD =        1172.8283
            RECHARGE =           0.0000              RECHARGE =           0.0000
               PIPES =       31841.9616                 PIPES =          79.6055

           TOTAL OUT =      500864.0264             TOTAL OUT =        1252.4338

            IN - OUT =       5.1294E-04              IN - OUT =       4.0018E-10

 PERCENT DISCREPANCY =           0.00     PERCENT DISCREPANCY =           0.00


          TIME SUMMARY AT END OF TIME STEP    10 IN STRESS PERIOD      4
                    SECONDS     MINUTES      HOURS       DAYS        YEARS
                    -----------------------------------------------------------
   TIME STEP LENGTH 8.64000E+05  14400.      240.00      10.000     2.73785E-02
 STRESS PERIOD TIME 8.64000E+06 1.44000E+05  2400.0      100.00     0.27379    
         TOTAL TIME 3.45600E+07 5.76000E+05  9600.0      400.00      1.0951    
 
1
                            STRESS PERIOD NO.      5, LENGTH =   100.0000    
                            -----------------------------------------------

                              NUMBER OF TIME STEPS =    10

                               MULTIPLIER FOR DELT =     1.000

                            INITIAL TIME STEP SIZE =   10.00000    

                 RECHARGE =  2.000000E-03
 
 CFP1RCH1RP SUBROUTINE READING FROM UNIT           14
  REUSING DATA FROM LAST STRESS PERIOD
 DATA FOR QCONDIR
 0.0     0.0     0.0     1.0     0.0   
 
 SOLVING FOR HEAD 
MODFLOW ITER.#  NEWTON-RAPHSON ITER.#   MAXIMUM NODE HEAD CHANGE
         1                   1                  0.0000270585
         1                   2                  0.0000000170
         1                   3                  0.0000000000
MODFLOW ITER.#  NEWTON-RAPHSON ITER.#   MAXIMUM NODE HEAD CHANGE
         2                   1                  0.0000025218
         2                   2                  0.0000000002
         2                   3                  0.0000000000
MODFLOW ITER.#  NEWTON-RAPHSON ITER.#   MAXIMUM NODE HEAD CHANGE
         3                   1                  0.0000000075
         3                   2                  0.0000000000
         3                   3                  0.0000000000


Solver Convergence Information:
                              HClose:  1.3536656E-9
                              RClose:  4.9142982E-6
                           L2-RClose:  1.0857983E-5
                         Rel-Vol-Err:  0.0
 
MODFLOW ITER.#  NEWTON-RAPHSON ITER.#   MAXIMUM NODE HEAD CHANGE
         3                   1                  0.0000000000
         3                   2                  0.0000000000
         3                   3                  0.0000000000

 OUTPUT CONTROL FOR STRESS PERIOD      5   TIME STEP     1
    PRINT HEAD FOR ALL LAYERS
    SAVE HEAD FOR ALL LAYERS
    SAVE BUDGET
 UBDSV1 SAVING "         STORAGE" ON UNIT 50 AT TIME STEP 1, STRESS PERIOD 5
 UBDSV2 SAVING "   CONSTANT HEAD" ON UNIT 50 AT TIME STEP 1, STRESS PERIOD 5
 UBDSV1 SAVING "FLOW RIGHT FACE " ON UNIT 50 AT TIME STEP 1, STRESS PERIOD 5
 UBDSV1 SAVING "FLOW FRONT FACE " ON UNIT 50 AT TIME STEP 1, STRESS PERIOD 5
 UBDSV1 SAVING "FLOW LOWER FACE " ON UNIT 50 AT TIME STEP 1, STRESS PERIOD 5
 UBDSV3 SAVING "        RECHARGE" ON UNIT 50 AT TIME STEP 1, STRESS PERIOD 5
 
 
 CFPM1 CRITERION OF CONVERGENCE:     0.1000000E-05
 CFPM1 MAXIMUM NUMBER OF ITERATIONS:   100
 
 
 CFPM1 RESULTS +++++++++++++++++++++++++++++++++++++++++++++++++++++++
 
 STRESS PERIOD/TIME STEP           5           1
 
NUMBER OF NEWTON RHAPSON ITERATIONS:     3
 
 ------- RESULTS OF FLOW CALCULATION -------
 
NODE#  NODE HEAD[M]   MATRIX HEAD [M] EXCHANGE [M^3/D]      CAD STORAGE    CADS RECHARGE         PFPSFLOW  DIRECT RECHARGE            QWELL             FHLQ           CAUCHY        CAUCHY LQ              QLH             QFIX
    1  20.00731          20.09754        -7.086594         0.000000         0.000000         0.000000         0.000000         0.000000         0.000000         0.000000         0.000000         0.000000         0.000000    
    2  20.00    FIX      20.00000         0.000000         0.000000         0.000000         0.000000         0.000000         0.000000         0.000000         0.000000         0.000000         0.000000        -79.80472    
    3  20.00725          20.09561        -20.81968         0.000000         0.000000         0.000000         0.000000         0.000000         0.000000         0.000000         0.000000         0.000000         0.000000    
    4  20.01033          20.19492        -28.99514         0.000000         0.000000         0.000000        0.2000000         0.000000         0.000000         0.000000         0.000000         0.000000         0.000000    
    5  20.01093          20.30000        -22.70331         0.000000         0.000000         0.000000         0.000000         0.000000         0.000000         0.000000         0.000000         0.000000         0.000000    
 
TUBE  B  E  FLOW          Q [M^3/D]       DIAM.[M]        LEN.[M]        RE         RESIDENCE TIME [D]
   1   1   3   TURB.         7.08659        0.10000       10.00000     1169.30971        0.01108
   2   2   3   TURB.       -79.80472        0.10000       10.00000    13168.02367        0.00098
   3   3   4   TURB.       -51.89844        0.10000       10.00000     8563.40265        0.00151
   4   4   5   TURB.       -22.70331        0.10000       10.00000     3746.11562        0.00346
 

    BUDGET OF THE PIPE SYSTEM OF TIMESTEP    1 IN STRESS PERIOD    5
------------------------------------------------------------------------

  TOTAL SIMULATION TIME   410.000000000000      S
 
        CUMULATIVE VALUES (L**3)        RATES THIS TIME STEP (L**3/T)

            IN:                               IN:
     CONSTANT HEAD =   0.0000000          CONSTANT HEAD =   0.0000000    
   MATRIX EXCHANGE =   32638.009        MATRIX EXCHANGE =   79.604720    
     PIPE RECHARGE =   92.000000          PIPE RECHARGE =  0.20000000    
       PFP STORAGE =   0.0000000            PFP STORAGE =   0.0000000    

     CUMULATIVE IN =   32730.009               TOTAL IN =   79.804720    

           OUT:                               OUT:
     CONSTANT HEAD =   32730.009          CONSTANT HEAD =   79.804720    
   MATRIX EXCHANGE =   0.0000000        MATRIX EXCHANGE =   0.0000000    
     PIPE RECHARGE =   0.0000000          PIPE RECHARGE =   0.0000000    
       PFP STORAGE =   0.0000000            PFP STORAGE =   0.0000000    

    CUMULATIVE OUT =   32730.009              TOTAL OUT =   79.804720    

          IN - OUT = -0.66575012E-09           IN - OUT =  0.37800874E-11
     PERCENT ERROR = -0.00                PERCENT ERROR =  0.00


 
 ------------------------NODE WATER BUDGET-----------------------
  STRESS PERIOD           5  TIME STEP           1
 TOTAL SIMULATION TIME   410.000000000000     
 
 FLOW TO THE NODE IN M^3/D
 
 NODE     FIXED HEAD     RECHARGE        QWELL  MATRIX EXCH      STORAGE      TUBE_IN     TUBE_OUT         CADS     FHLQ(LQ)       CAUCHY   CAUCHY(LQ)          QLH     IN - OUT
    1     0.0000       0.0000       0.0000       7.0866       0.0000       0.0000      -7.0866       0.0000       0.0000       0.0000       0.0000       0.0000     -0.64903E-10
    2    -79.805       0.0000       0.0000       0.0000       0.0000       79.805       0.0000       0.0000       0.0000       0.0000       0.0000       0.0000       0.0000    
    3     0.0000       0.0000       0.0000       20.820       0.0000       58.985      -79.805       0.0000       0.0000       0.0000       0.0000       0.0000      0.59913E-10
    4     0.0000      0.20000       0.0000       28.995       0.0000       22.703      -51.898       0.0000       0.0000       0.0000       0.0000       0.0000      0.68049E-10
    5     0.0000       0.0000       0.0000       22.703       0.0000       0.0000      -22.703       0.0000       0.0000       0.0000       0.0000       0.0000     -0.59284E-10


     3 CALLS TO PCG ROUTINE FOR TIME STEP   1 IN STRESS PERIOD    5
    11 TOTAL ITERATIONS
1
              HEAD IN LAYER   1 AT END OF TIME STEP   1 IN STRESS PERIOD    5
  ---------------------------------------------------------------------------

            1           2           3           4
 ................................................
   1    20.00       20.10       20.20       20.30    
   2    20.00       20.10       20.20       20.30    
   3    20.00       20.10       20.19       20.30    
   4    20.00       20.10       20.20       20.30    
1
              HEAD IN LAYER   2 AT END OF TIME STEP   1 IN STRESS PERIOD    5
  ---------------------------------------------------------------------------

            1           2           3           4
 ................................................
   1    20.00       20.10       20.20       20.30    
   2    20.00       20.10       20.20       20.30    
   3    20.00       20.10       20.20       20.30    
   4    20.00       20.10       20.20       20.30    
1
              HEAD IN LAYER   3 AT END OF TIME STEP   1 IN STRESS PERIOD    5
  ---------------------------------------------------------------------------

            1           2           3           4
 ................................................
   1    20.00       20.10       20.20       20.30    
   2    20.00       20.10       20.20       20.30    
   3    20.00       20.10       20.20       20.30    
   4    20.00       20.10       20.20       20.30    

 HEAD WILL BE SAVED ON UNIT   51 AT END OF TIME STEP     1 IN STRESS PERIOD      5

          TIME SUMMARY AT END OF TIME STEP     1 IN STRESS PERIOD      5
                    SECONDS     MINUTES      HOURS       DAYS        YEARS
                    -----------------------------------------------------------
   TIME STEP LENGTH 8.64000E+05  14400.      240.00      10.000     2.73785E-02
 STRESS PERIOD TIME 8.64000E+05  14400.      240.00      10.000     2.73785E-02
         TOTAL TIME 3.54240E+07 5.90400E+05  9840.0      410.00      1.1225    
 
 
 SOLVING FOR HEAD 
MODFLOW ITER.#  NEWTON-RAPHSON ITER.#   MAXIMUM NODE HEAD CHANGE
         1                   1                  0.0000000000
         1                   2                  0.0000000000
         1                   3                  0.0000000000


Solver Convergence Information:
                              HClose:  5.1887739E-10
                              RClose:  2.3434404E-6
                           L2-RClose:  4.6010983E-6
                         Rel-Vol-Err:  0.0
 
MODFLOW ITER.#  NEWTON-RAPHSON ITER.#   MAXIMUM NODE HEAD CHANGE
         1                   1                  0.0000000000
         1                   2                  0.0000000000
         1                   3                  0.0000000000

 NO OUTPUT CONTROL FOR STRESS PERIOD      5   TIME STEP     2
 
 
 CFPM1 CRITERION OF CONVERGENCE:     0.1000000E-05
 CFPM1 MAXIMUM NUMBER OF ITERATIONS:   100
 
 
 CFPM1 RESULTS +++++++++++++++++++++++++++++++++++++++++++++++++++++++
 
 STRESS PERIOD/TIME STEP           5           2
 
NUMBER OF NEWTON RHAPSON ITERATIONS:     3
 
 ------- RESULTS OF FLOW CALCULATION -------
 
NODE#  NODE HEAD[M]   MATRIX HEAD [M] EXCHANGE [M^3/D]      CAD STORAGE    CADS RECHARGE         PFPSFLOW  DIRECT RECHARGE            QWELL             FHLQ           CAUCHY        CAUCHY LQ              QLH             QFIX
    1  20.00731          20.09754        -7.086594         0.000000         0.000000         0.000000         0.000000         0.000000         0.000000         0.000000         0.000000         0.000000         0.000000    
    2  20.00    FIX      20.00000         0.000000         0.000000         0.000000         0.000000         0.000000         0.000000         0.000000         0.000000         0.000000         0.000000        -79.80472    
    3  20.00725          20.09561        -20.81968         0.000000         0.000000         0.000000         0.000000         0.000000         0.000000         0.000000         0.000000         0.000000         0.000000    
    4  20.01033          20.19492        -28.99514         0.000000         0.000000         0.000000        0.2000000         0.000000         0.000000         0.000000         0.000000         0.000000         0.000000    
    5  20.01093          20.30000        -22.70331         0.000000         0.000000         0.000000         0.000000         0.000000         0.000000         0.000000         0.000000         0.000000         0.000000    
 
TUBE  B  E  FLOW          Q [M^3/D]       DIAM.[M]        LEN.[M]        RE         RESIDENCE TIME [D]
   1   1   3   TURB.         7.08659        0.10000       10.00000     1169.30971        0.01108
   2   2   3   TURB.       -79.80472        0.10000       10.00000    13168.02367        0.00098
   3   3   4   TURB.       -51.89844        0.10000       10.00000     8563.40265        0.00151
   4   4   5   TURB.       -22.70331        0.10000       10.00000     3746.11562        0.00346
 

    BUDGET OF THE PIPE SYSTEM OF TIMESTEP    2 IN STRESS PERIOD    5
------------------------------------------------------------------------

  TOTAL SIMULATION TIME   420.000000000000      S
 
        CUMULATIVE VALUES (L**3)        RATES THIS TIME STEP (L**3/T)

            IN:                               IN:
     CONSTANT HEAD =   0.0000000          CONSTANT HEAD =   0.0000000    
   MATRIX EXCHANGE =   33434.056        MATRIX EXCHANGE =   79.604720    
     PIPE RECHARGE =   94.000000          PIPE RECHARGE =  0.20000000    
       PFP STORAGE =   0.0000000            PFP STORAGE =   0.0000000    

     CUMULATIVE IN =   33528.056               TOTAL IN =   79.804720    

           OUT:                               OUT:
     CONSTANT HEAD =   33528.056          CONSTANT HEAD =   79.804720    
   MATRIX EXCHANGE =   0.0000000        MATRIX EXCHANGE =   0.0000000    
     PIPE RECHARGE =   0.0000000          PIPE RECHARGE =   0.0000000    
       PFP STORAGE =   0.0000000            PFP STORAGE =   0.0000000    

    CUMULATIVE OUT =   33528.056              TOTAL OUT =   79.804720    

          IN - OUT = -0.75669959E-09           IN - OUT = -0.96775921E-11
     PERCENT ERROR = -0.00                PERCENT ERROR = -0.00


 
 ------------------------NODE WATER BUDGET-----------------------
  STRESS PERIOD           5  TIME STEP           2
 TOTAL SIMULATION TIME   420.000000000000     
 
 FLOW TO THE NODE IN M^3/D
 
 NODE     FIXED HEAD     RECHARGE        QWELL  MATRIX EXCH      STORAGE      TUBE_IN     TUBE_OUT         CADS     FHLQ(LQ)       CAUCHY   CAUCHY(LQ)          QLH     IN - OUT
    1     0.0000       0.0000       0.0000       7.0866       0.0000       0.0000      -7.0866       0.0000       0.0000       0.0000       0.0000       0.0000      0.35888E-10
    2    -79.805       0.0000       0.0000       0.0000       0.0000       79.805       0.0000       0.0000       0.0000       0.0000       0.0000       0.0000       0.0000    
    3     0.0000       0.0000       0.0000       20.820       0.0000       58.985      -79.805       0.0000       0.0000       0.0000       0.0000       0.0000     -0.57355E-10
    4     0.0000      0.20000       0.0000       28.995       0.0000       22.703      -51.898       0.0000       0.0000       0.0000       0.0000       0.0000      0.15120E-10
    5     0.0000       0.0000       0.0000       22.703       0.0000       0.0000      -22.703       0.0000       0.0000       0.0000       0.0000       0.0000     -0.33253E-11
     1 CALLS TO PCG ROUTINE FOR TIME STEP   2 IN STRESS PERIOD    5
     1 TOTAL ITERATIONS
 
 SOLVING FOR HEAD 
MODFLOW ITER.#  NEWTON-RAPHSON ITER.#   MAXIMUM NODE HEAD CHANGE
         1                   1                  0.0000000000
         1                   2                  0.0000000000
         1                   3                  0.0000000000


Solver Convergence Information:
                              HClose:  2.6753355E-10
                              RClose:  1.1241646E-6
                           L2-RClose:  2.2586027E-6
                         Rel-Vol-Err:  0.0
 
MODFLOW ITER.#  NEWTON-RAPHSON ITER.#   MAXIMUM NODE HEAD CHANGE
         1                   1                  0.0000000000
         1                   2                  0.0000000000
         1                   3                  0.0000000000

 NO OUTPUT CONTROL FOR STRESS PERIOD      5   TIME STEP     3
 
 
 CFPM1 CRITERION OF CONVERGENCE:     0.1000000E-05
 CFPM1 MAXIMUM NUMBER OF ITERATIONS:   100
 
 
 CFPM1 RESULTS +++++++++++++++++++++++++++++++++++++++++++++++++++++++
 
 STRESS PERIOD/TIME STEP           5           3
 
NUMBER OF NEWTON RHAPSON ITERATIONS:     3
 
 ------- RESULTS OF FLOW CALCULATION -------
 
NODE#  NODE HEAD[M]   MATRIX HEAD [M] EXCHANGE [M^3/D]      CAD STORAGE    CADS RECHARGE         PFPSFLOW  DIRECT RECHARGE            QWELL             FHLQ           CAUCHY        CAUCHY LQ              QLH             QFIX
    1  20.00731          20.09754        -7.086594         0.000000         0.000000         0.000000         0.000000         0.000000         0.000000         0.000000         0.000000         0.000000         0.000000    
    2  20.00    FIX      20.00000         0.000000         0.000000         0.000000         0.000000         0.000000         0.000000         0.000000         0.000000         0.000000         0.000000        -79.80472    
    3  20.00725          20.09561        -20.81968         0.000000         0.000000         0.000000         0.000000         0.000000         0.000000         0.000000         0.000000         0.000000         0.000000    
    4  20.01033          20.19492        -28.99514         0.000000         0.000000         0.000000        0.2000000         0.000000         0.000000         0.000000         0.000000         0.000000         0.000000    
    5  20.01093          20.30000        -22.70331         0.000000         0.000000         0.000000         0.000000         0.000000         0.000000         0.000000         0.000000         0.000000         0.000000    
 
TUBE  B  E  FLOW          Q [M^3/D]       DIAM.[M]        LEN.[M]        RE         RESIDENCE TIME [D]
   1   1   3   TURB.         7.08659        0.10000       10.00000     1169.30971        0.01108
   2   2   3   TURB.       -79.80472        0.10000       10.00000    13168.02367        0.00098
   3   3   4   TURB.       -51.89844        0.10000       10.00000     8563.40265        0.00151
   4   4   5   TURB.       -22.70331        0.10000       10.00000     3746.11562        0.00346
 

    BUDGET OF THE PIPE SYSTEM OF TIMESTEP    3 IN STRESS PERIOD    5
------------------------------------------------------------------------

  TOTAL SIMULATION TIME   430.000000000000      S
 
        CUMULATIVE VALUES (L**3)        RATES THIS TIME STEP (L**3/T)

            IN:                               IN:
     CONSTANT HEAD =   0.0000000          CONSTANT HEAD =   0.0000000    
   MATRIX EXCHANGE =   34230.103        MATRIX EXCHANGE =   79.604720    
     PIPE RECHARGE =   96.000000          PIPE RECHARGE =  0.20000000    
       PFP STORAGE =   0.0000000            PFP STORAGE =   0.0000000    

     CUMULATIVE IN =   34326.103               TOTAL IN =   79.804720    

           OUT:                               OUT:
     CONSTANT HEAD =   34326.103          CONSTANT HEAD =   79.804720    
   MATRIX EXCHANGE =   0.0000000        MATRIX EXCHANGE =   0.0000000    
     PIPE RECHARGE =   0.0000000          PIPE RECHARGE =   0.0000000    
       PFP STORAGE =   0.0000000            PFP STORAGE =   0.0000000    

    CUMULATIVE OUT =   34326.103              TOTAL OUT =   79.804720    

          IN - OUT = -0.69849193E-09           IN - OUT =  0.55990768E-11
     PERCENT ERROR = -0.00                PERCENT ERROR =  0.00


 
 ------------------------NODE WATER BUDGET-----------------------
  STRESS PERIOD           5  TIME STEP           3
 TOTAL SIMULATION TIME   430.000000000000     
 
 FLOW TO THE NODE IN M^3/D
 
 NODE     FIXED HEAD     RECHARGE        QWELL  MATRIX EXCH      STORAGE      TUBE_IN     TUBE_OUT         CADS     FHLQ(LQ)       CAUCHY   CAUCHY(LQ)          QLH     IN - OUT
    1     0.0000       0.0000       0.0000       7.0866       0.0000       0.0000      -7.0866       0.0000       0.0000       0.0000       0.0000       0.0000     -0.23604E-10
    2    -79.805       0.0000       0.0000       0.0000       0.0000       79.805       0.0000       0.0000       0.0000       0.0000       0.0000       0.0000       0.0000    
    3     0.0000       0.0000       0.0000       20.820       0.0000       58.985      -79.805       0.0000       0.0000       0.0000       0.0000       0.0000      0.38710E-10
    4     0.0000      0.20000       0.0000       28.995       0.0000       22.703      -51.898       0.0000       0.0000       0.0000       0.0000       0.0000     -0.38980E-10
    5     0.0000       0.0000       0.0000       22.703       0.0000       0.0000      -22.703       0.0000       0.0000       0.0000       0.0000       0.0000      0.29470E-10
     1 CALLS TO PCG ROUTINE FOR TIME STEP   3 IN STRESS PERIOD    5
     1 TOTAL ITERATIONS
 
 SOLVING FOR HEAD 
MODFLOW ITER.#  NEWTON-RAPHSON ITER.#   MAXIMUM NODE HEAD CHANGE
         1                   1                  0.0000000000
         1                   2                  0.0000000000
         1                   3                  0.0000000000


Solver Convergence Information:
                              HClose:  1.2035883E-10
                              RClose:  5.2811811E-7
                           L2-RClose:  9.8570340E-7
                         Rel-Vol-Err:  0.0
 
MODFLOW ITER.#  NEWTON-RAPHSON ITER.#   MAXIMUM NODE HEAD CHANGE
         1                   1                  0.0000000000
         1                   2                  0.0000000000
         1                   3                  0.0000000000

 NO OUTPUT CONTROL FOR STRESS PERIOD      5   TIME STEP     4
 
 
 CFPM1 CRITERION OF CONVERGENCE:     0.1000000E-05
 CFPM1 MAXIMUM NUMBER OF ITERATIONS:   100
 
 
 CFPM1 RESULTS +++++++++++++++++++++++++++++++++++++++++++++++++++++++
 
 STRESS PERIOD/TIME STEP           5           4
 
NUMBER OF NEWTON RHAPSON ITERATIONS:     3
 
 ------- RESULTS OF FLOW CALCULATION -------
 
NODE#  NODE HEAD[M]   MATRIX HEAD [M] EXCHANGE [M^3/D]      CAD STORAGE    CADS RECHARGE         PFPSFLOW  DIRECT RECHARGE            QWELL             FHLQ           CAUCHY        CAUCHY LQ              QLH             QFIX
    1  20.00731          20.09754        -7.086594         0.000000         0.000000         0.000000         0.000000         0.000000         0.000000         0.000000         0.000000         0.000000         0.000000    
    2  20.00    FIX      20.00000         0.000000         0.000000         0.000000         0.000000         0.000000         0.000000         0.000000         0.000000         0.000000         0.000000        -79.80472    
    3  20.00725          20.09561        -20.81968         0.000000         0.000000         0.000000         0.000000         0.000000         0.000000         0.000000         0.000000         0.000000         0.000000    
    4  20.01033          20.19492        -28.99514         0.000000         0.000000         0.000000        0.2000000         0.000000         0.000000         0.000000         0.000000         0.000000         0.000000    
    5  20.01093          20.30000        -22.70331         0.000000         0.000000         0.000000         0.000000         0.000000         0.000000         0.000000         0.000000         0.000000         0.000000    
 
TUBE  B  E  FLOW          Q [M^3/D]       DIAM.[M]        LEN.[M]        RE         RESIDENCE TIME [D]
   1   1   3   TURB.         7.08659        0.10000       10.00000     1169.30971        0.01108
   2   2   3   TURB.       -79.80472        0.10000       10.00000    13168.02366        0.00098
   3   3   4   TURB.       -51.89844        0.10000       10.00000     8563.40265        0.00151
   4   4   5   TURB.       -22.70331        0.10000       10.00000     3746.11562        0.00346
 

    BUDGET OF THE PIPE SYSTEM OF TIMESTEP    4 IN STRESS PERIOD    5
------------------------------------------------------------------------

  TOTAL SIMULATION TIME   440.000000000000      S
 
        CUMULATIVE VALUES (L**3)        RATES THIS TIME STEP (L**3/T)

            IN:                               IN:
     CONSTANT HEAD =   0.0000000          CONSTANT HEAD =   0.0000000    
   MATRIX EXCHANGE =   35026.150        MATRIX EXCHANGE =   79.604720    
     PIPE RECHARGE =   98.000000          PIPE RECHARGE =  0.20000000    
       PFP STORAGE =   0.0000000            PFP STORAGE =   0.0000000    

     CUMULATIVE IN =   35124.150               TOTAL IN =   79.804720    

           OUT:                               OUT:
     CONSTANT HEAD =   35124.150          CONSTANT HEAD =   79.804720    
   MATRIX EXCHANGE =   0.0000000        MATRIX EXCHANGE =   0.0000000    
     PIPE RECHARGE =   0.0000000          PIPE RECHARGE =   0.0000000    
       PFP STORAGE =   0.0000000            PFP STORAGE =   0.0000000    

    CUMULATIVE OUT =   35124.150              TOTAL OUT =   79.804720    

          IN - OUT = -0.73487172E-09           IN - OUT = -0.43343107E-11
     PERCENT ERROR = -0.00                PERCENT ERROR = -0.00


 
 ------------------------NODE WATER BUDGET-----------------------
  STRESS PERIOD           5  TIME STEP           4
 TOTAL SIMULATION TIME   440.000000000000     
 
 FLOW TO THE NODE IN M^3/D
 
 NODE     FIXED HEAD     RECHARGE        QWELL  MATRIX EXCH      STORAGE      TUBE_IN     TUBE_OUT         CADS     FHLQ(LQ)       CAUCHY   CAUCHY(LQ)          QLH     IN - OUT
    1     0.0000       0.0000       0.0000       7.0866       0.0000       0.0000      -7.0866       0.0000       0.0000       0.0000       0.0000       0.0000     -0.17764E-12
    2    -79.805       0.0000       0.0000       0.0000       0.0000       79.805       0.0000       0.0000       0.0000       0.0000       0.0000       0.0000       0.0000    
    3     0.0000       0.0000       0.0000       20.820       0.0000       58.985      -79.805       0.0000       0.0000       0.0000       0.0000       0.0000     -0.17963E-10
    4     0.0000      0.20000       0.0000       28.995       0.0000       22.703      -51.898       0.0000       0.0000       0.0000       0.0000       0.0000     -0.48601E-11
    5     0.0000       0.0000       0.0000       22.703       0.0000       0.0000      -22.703       0.0000       0.0000       0.0000       0.0000       0.0000      0.18673E-10
     1 CALLS TO PCG ROUTINE FOR TIME STEP   4 IN STRESS PERIOD    5
     1 TOTAL ITERATIONS
 
 SOLVING FOR HEAD 
MODFLOW ITER.#  NEWTON-RAPHSON ITER.#   MAXIMUM NODE HEAD CHANGE
         1                   1                  0.0000000000
         1                   2                  0.0000000000
         1                   3                  0.0000000000


Solver Convergence Information:
                              HClose:  5.7390537E-11
                              RClose:  2.5343616E-7
                           L2-RClose:  4.8807276E-7
                         Rel-Vol-Err:  0.0
 
MODFLOW ITER.#  NEWTON-RAPHSON ITER.#   MAXIMUM NODE HEAD CHANGE
         1                   1                  0.0000000000
         1                   2                  0.0000000000
         1                   3                  0.0000000000

 NO OUTPUT CONTROL FOR STRESS PERIOD      5   TIME STEP     5
 
 
 CFPM1 CRITERION OF CONVERGENCE:     0.1000000E-05
 CFPM1 MAXIMUM NUMBER OF ITERATIONS:   100
 
 
 CFPM1 RESULTS +++++++++++++++++++++++++++++++++++++++++++++++++++++++
 
 STRESS PERIOD/TIME STEP           5           5
 
NUMBER OF NEWTON RHAPSON ITERATIONS:     3
 
 ------- RESULTS OF FLOW CALCULATION -------
 
NODE#  NODE HEAD[M]   MATRIX HEAD [M] EXCHANGE [M^3/D]      CAD STORAGE    CADS RECHARGE         PFPSFLOW  DIRECT RECHARGE            QWELL             FHLQ           CAUCHY        CAUCHY LQ              QLH             QFIX
    1  20.00731          20.09754        -7.086594         0.000000         0.000000         0.000000         0.000000         0.000000         0.000000         0.000000         0.000000         0.000000         0.000000    
    2  20.00    FIX      20.00000         0.000000         0.000000         0.000000         0.000000         0.000000         0.000000         0.000000         0.000000         0.000000         0.000000        -79.80472    
    3  20.00725          20.09561        -20.81968         0.000000         0.000000         0.000000         0.000000         0.000000         0.000000         0.000000         0.000000         0.000000         0.000000    
    4  20.01033          20.19492        -28.99514         0.000000         0.000000         0.000000        0.2000000         0.000000         0.000000         0.000000         0.000000         0.000000         0.000000    
    5  20.01093          20.30000        -22.70331         0.000000         0.000000         0.000000         0.000000         0.000000         0.000000         0.000000         0.000000         0.000000         0.000000    
 
TUBE  B  E  FLOW          Q [M^3/D]       DIAM.[M]        LEN.[M]        RE         RESIDENCE TIME [D]
   1   1   3   TURB.         7.08659        0.10000       10.00000     1169.30971        0.01108
   2   2   3   TURB.       -79.80472        0.10000       10.00000    13168.02366        0.00098
   3   3   4   TURB.       -51.89844        0.10000       10.00000     8563.40265        0.00151
   4   4   5   TURB.       -22.70331        0.10000       10.00000     3746.11562        0.00346
 

    BUDGET OF THE PIPE SYSTEM OF TIMESTEP    5 IN STRESS PERIOD    5
------------------------------------------------------------------------

  TOTAL SIMULATION TIME   450.000000000000      S
 
        CUMULATIVE VALUES (L**3)        RATES THIS TIME STEP (L**3/T)

            IN:                               IN:
     CONSTANT HEAD =   0.0000000          CONSTANT HEAD =   0.0000000    
   MATRIX EXCHANGE =   35822.198        MATRIX EXCHANGE =   79.604719    
     PIPE RECHARGE =   100.00000          PIPE RECHARGE =  0.20000000    
       PFP STORAGE =   0.0000000            PFP STORAGE =   0.0000000    

     CUMULATIVE IN =   35922.198               TOTAL IN =   79.804719    

           OUT:                               OUT:
     CONSTANT HEAD =   35922.198          CONSTANT HEAD =   79.804719    
   MATRIX EXCHANGE =   0.0000000        MATRIX EXCHANGE =   0.0000000    
     PIPE RECHARGE =   0.0000000          PIPE RECHARGE =   0.0000000    
       PFP STORAGE =   0.0000000            PFP STORAGE =   0.0000000    

    CUMULATIVE OUT =   35922.198              TOTAL OUT =   79.804719    

          IN - OUT = -0.69121597E-09           IN - OUT =  0.39506176E-11
     PERCENT ERROR = -0.00                PERCENT ERROR =  0.00


 
 ------------------------NODE WATER BUDGET-----------------------
  STRESS PERIOD           5  TIME STEP           5
 TOTAL SIMULATION TIME   450.000000000000     
 
 FLOW TO THE NODE IN M^3/D
 
 NODE     FIXED HEAD     RECHARGE        QWELL  MATRIX EXCH      STORAGE      TUBE_IN     TUBE_OUT         CADS     FHLQ(LQ)       CAUCHY   CAUCHY(LQ)          QLH     IN - OUT
    1     0.0000       0.0000       0.0000       7.0866       0.0000       0.0000      -7.0866       0.0000       0.0000       0.0000       0.0000       0.0000     -0.94429E-10
    2    -79.805       0.0000       0.0000       0.0000       0.0000       79.805       0.0000       0.0000       0.0000       0.0000       0.0000       0.0000       0.0000    
    3     0.0000       0.0000       0.0000       20.820       0.0000       58.985      -79.805       0.0000       0.0000       0.0000       0.0000       0.0000      0.94971E-10
    4     0.0000      0.20000       0.0000       28.995       0.0000       22.703      -51.898       0.0000       0.0000       0.0000       0.0000       0.0000      0.18836E-10
    5     0.0000       0.0000       0.0000       22.703       0.0000       0.0000      -22.703       0.0000       0.0000       0.0000       0.0000       0.0000     -0.15433E-10
     1 CALLS TO PCG ROUTINE FOR TIME STEP   5 IN STRESS PERIOD    5
     1 TOTAL ITERATIONS

 MAXIMUM HEAD CHANGE FOR EACH ITERATION (1 INDICATES THE FIRST INNER ITERATION):

    HEAD CHANGE    HEAD CHANGE    HEAD CHANGE    HEAD CHANGE    HEAD CHANGE 
   LAYER,ROW,COL  LAYER,ROW,COL  LAYER,ROW,COL  LAYER,ROW,COL  LAYER,ROW,COL
 ---------------------------------------------------------------------------
  1  0.5739E-10
   (  3,  2,  3)

 MAXIMUM RESIDUAL FOR EACH ITERATION (1 INDICATES THE FIRST INNER ITERATION):

    RESIDUAL       RESIDUAL       RESIDUAL       RESIDUAL       RESIDUAL    
   LAYER,ROW,COL  LAYER,ROW,COL  LAYER,ROW,COL  LAYER,ROW,COL  LAYER,ROW,COL
 ---------------------------------------------------------------------------
  1  0.2534E-06
   (  1,  3,  2)


 
 SOLVING FOR HEAD 
MODFLOW ITER.#  NEWTON-RAPHSON ITER.#   MAXIMUM NODE HEAD CHANGE
         1                   1                  0.0000000000
         1                   2                  0.0000000000
         1                   3                  0.0000000000


Solver Convergence Information:
                              HClose:  2.8133940E-11
                              RClose:  1.1868542E-7
                           L2-RClose:  2.1845870E-7
                         Rel-Vol-Err:  0.0
 
MODFLOW ITER.#  NEWTON-RAPHSON ITER.#   MAXIMUM NODE HEAD CHANGE
         1                   1                  0.0000000000
         1                   2                  0.0000000000
         1                   3                  0.0000000000

 NO OUTPUT CONTROL FOR STRESS PERIOD      5   TIME STEP     6
 
 
 CFPM1 CRITERION OF CONVERGENCE:     0.1000000E-05
 CFPM1 MAXIMUM NUMBER OF ITERATIONS:   100
 
 
 CFPM1 RESULTS +++++++++++++++++++++++++++++++++++++++++++++++++++++++
 
 STRESS PERIOD/TIME STEP           5           6
 
NUMBER OF NEWTON RHAPSON ITERATIONS:     3
 
 ------- RESULTS OF FLOW CALCULATION -------
 
NODE#  NODE HEAD[M]   MATRIX HEAD [M] EXCHANGE [M^3/D]      CAD STORAGE    CADS RECHARGE         PFPSFLOW  DIRECT RECHARGE            QWELL             FHLQ           CAUCHY        CAUCHY LQ              QLH             QFIX
    1  20.00731          20.09754        -7.086594         0.000000         0.000000         0.000000         0.000000         0.000000         0.000000         0.000000         0.000000         0.000000         0.000000    
    2  20.00    FIX      20.00000         0.000000         0.000000         0.000000         0.000000         0.000000         0.000000         0.000000         0.000000         0.000000         0.000000        -79.80472    
    3  20.00725          20.09561        -20.81968         0.000000         0.000000         0.000000         0.000000         0.000000         0.000000         0.000000         0.000000         0.000000         0.000000    
    4  20.01033          20.19492        -28.99514         0.000000         0.000000         0.000000        0.2000000         0.000000         0.000000         0.000000         0.000000         0.000000         0.000000    
    5  20.01093          20.30000        -22.70331         0.000000         0.000000         0.000000         0.000000         0.000000         0.000000         0.000000         0.000000         0.000000         0.000000    
 
TUBE  B  E  FLOW          Q [M^3/D]       DIAM.[M]        LEN.[M]        RE         RESIDENCE TIME [D]
   1   1   3   TURB.         7.08659        0.10000       10.00000     1169.30971        0.01108
   2   2   3   TURB.       -79.80472        0.10000       10.00000    13168.02366        0.00098
   3   3   4   TURB.       -51.89844        0.10000       10.00000     8563.40265        0.00151
   4   4   5   TURB.       -22.70331        0.10000       10.00000     3746.11562        0.00346
 

    BUDGET OF THE PIPE SYSTEM OF TIMESTEP    6 IN STRESS PERIOD    5
------------------------------------------------------------------------

  TOTAL SIMULATION TIME   460.000000000000      S
 
        CUMULATIVE VALUES (L**3)        RATES THIS TIME STEP (L**3/T)

            IN:                               IN:
     CONSTANT HEAD =   0.0000000          CONSTANT HEAD =   0.0000000    
   MATRIX EXCHANGE =   36618.245        MATRIX EXCHANGE =   79.604719    
     PIPE RECHARGE =   102.00000          PIPE RECHARGE =  0.20000000    
       PFP STORAGE =   0.0000000            PFP STORAGE =   0.0000000    

     CUMULATIVE IN =   36720.245               TOTAL IN =   79.804719    

           OUT:                               OUT:
     CONSTANT HEAD =   36720.245          CONSTANT HEAD =   79.804719    
   MATRIX EXCHANGE =   0.0000000        MATRIX EXCHANGE =   0.0000000    
     PIPE RECHARGE =   0.0000000          PIPE RECHARGE =   0.0000000    
       PFP STORAGE =   0.0000000            PFP STORAGE =   0.0000000    

    CUMULATIVE OUT =   36720.245              TOTAL OUT =   79.804719    

          IN - OUT = -0.74942363E-09           IN - OUT = -0.52722271E-11
     PERCENT ERROR = -0.00                PERCENT ERROR = -0.00


 
 ------------------------NODE WATER BUDGET-----------------------
  STRESS PERIOD           5  TIME STEP           6
 TOTAL SIMULATION TIME   460.000000000000     
 
 FLOW TO THE NODE IN M^3/D
 
 NODE     FIXED HEAD     RECHARGE        QWELL  MATRIX EXCH      STORAGE      TUBE_IN     TUBE_OUT         CADS     FHLQ(LQ)       CAUCHY   CAUCHY(LQ)          QLH     IN - OUT
    1     0.0000       0.0000       0.0000       7.0866       0.0000       0.0000      -7.0866       0.0000       0.0000       0.0000       0.0000       0.0000     -0.13296E-11
    2    -79.805       0.0000       0.0000       0.0000       0.0000       79.805       0.0000       0.0000       0.0000       0.0000       0.0000       0.0000       0.0000    
    3     0.0000       0.0000       0.0000       20.820       0.0000       58.985      -79.805       0.0000       0.0000       0.0000       0.0000       0.0000     -0.13628E-10
    4     0.0000      0.20000       0.0000       28.995       0.0000       22.703      -51.898       0.0000       0.0000       0.0000       0.0000       0.0000      0.29090E-10
    5     0.0000       0.0000       0.0000       22.703       0.0000       0.0000      -22.703       0.0000       0.0000       0.0000       0.0000       0.0000     -0.19405E-10
     1 CALLS TO PCG ROUTINE FOR TIME STEP   6 IN STRESS PERIOD    5
     1 TOTAL ITERATIONS
 
 SOLVING FOR HEAD 
MODFLOW ITER.#  NEWTON-RAPHSON ITER.#   MAXIMUM NODE HEAD CHANGE
         1                   1                  0.0000000000
         1                   2                  0.0000000000
         1                   3                  0.0000000000


Solver Convergence Information:
                              HClose:  1.2740031E-11
                              RClose:  5.7218131E-8
                           L2-RClose:  1.0861957E-7
                         Rel-Vol-Err:  0.0
 
MODFLOW ITER.#  NEWTON-RAPHSON ITER.#   MAXIMUM NODE HEAD CHANGE
         1                   1                  0.0000000000
         1                   2                  0.0000000000
         1                   3                  0.0000000000

 NO OUTPUT CONTROL FOR STRESS PERIOD      5   TIME STEP     7
 
 
 CFPM1 CRITERION OF CONVERGENCE:     0.1000000E-05
 CFPM1 MAXIMUM NUMBER OF ITERATIONS:   100
 
 
 CFPM1 RESULTS +++++++++++++++++++++++++++++++++++++++++++++++++++++++
 
 STRESS PERIOD/TIME STEP           5           7
 
NUMBER OF NEWTON RHAPSON ITERATIONS:     3
 
 ------- RESULTS OF FLOW CALCULATION -------
 
NODE#  NODE HEAD[M]   MATRIX HEAD [M] EXCHANGE [M^3/D]      CAD STORAGE    CADS RECHARGE         PFPSFLOW  DIRECT RECHARGE            QWELL             FHLQ           CAUCHY        CAUCHY LQ              QLH             QFIX
    1  20.00731          20.09754        -7.086594         0.000000         0.000000         0.000000         0.000000         0.000000         0.000000         0.000000         0.000000         0.000000         0.000000    
    2  20.00    FIX      20.00000         0.000000         0.000000         0.000000         0.000000         0.000000         0.000000         0.000000         0.000000         0.000000         0.000000        -79.80472    
    3  20.00725          20.09561        -20.81968         0.000000         0.000000         0.000000         0.000000         0.000000         0.000000         0.000000         0.000000         0.000000         0.000000    
    4  20.01033          20.19492        -28.99514         0.000000         0.000000         0.000000        0.2000000         0.000000         0.000000         0.000000         0.000000         0.000000         0.000000    
    5  20.01093          20.30000        -22.70331         0.000000         0.000000         0.000000         0.000000         0.000000         0.000000         0.000000         0.000000         0.000000         0.000000    
 
TUBE  B  E  FLOW          Q [M^3/D]       DIAM.[M]        LEN.[M]        RE         RESIDENCE TIME [D]
   1   1   3   TURB.         7.08659        0.10000       10.00000     1169.30971        0.01108
   2   2   3   TURB.       -79.80472        0.10000       10.00000    13168.02366        0.00098
   3   3   4   TURB.       -51.89844        0.10000       10.00000     8563.40265        0.00151
   4   4   5   TURB.       -22.70331        0.10000       10.00000     3746.11562        0.00346
 

    BUDGET OF THE PIPE SYSTEM OF TIMESTEP    7 IN STRESS PERIOD    5
------------------------------------------------------------------------

  TOTAL SIMULATION TIME   470.000000000000      S
 
        CUMULATIVE VALUES (L**3)        RATES THIS TIME STEP (L**3/T)

            IN:                               IN:
     CONSTANT HEAD =   0.0000000          CONSTANT HEAD =   0.0000000    
   MATRIX EXCHANGE =   37414.292        MATRIX EXCHANGE =   79.604719    
     PIPE RECHARGE =   104.00000          PIPE RECHARGE =  0.20000000    
       PFP STORAGE =   0.0000000            PFP STORAGE =   0.0000000    

     CUMULATIVE IN =   37518.292               TOTAL IN =   79.804719    

           OUT:                               OUT:
     CONSTANT HEAD =   37518.292          CONSTANT HEAD =   79.804719    
   MATRIX EXCHANGE =   0.0000000        MATRIX EXCHANGE =   0.0000000    
     PIPE RECHARGE =   0.0000000          PIPE RECHARGE =   0.0000000    
       PFP STORAGE =   0.0000000            PFP STORAGE =   0.0000000    

    CUMULATIVE OUT =   37518.292              TOTAL OUT =   79.804719    

          IN - OUT = -0.80763130E-09           IN - OUT = -0.55706550E-11
     PERCENT ERROR = -0.00                PERCENT ERROR = -0.00


 
 ------------------------NODE WATER BUDGET-----------------------
  STRESS PERIOD           5  TIME STEP           7
 TOTAL SIMULATION TIME   470.000000000000     
 
 FLOW TO THE NODE IN M^3/D
 
 NODE     FIXED HEAD     RECHARGE        QWELL  MATRIX EXCH      STORAGE      TUBE_IN     TUBE_OUT         CADS     FHLQ(LQ)       CAUCHY   CAUCHY(LQ)          QLH     IN - OUT
    1     0.0000       0.0000       0.0000       7.0866       0.0000       0.0000      -7.0866       0.0000       0.0000       0.0000       0.0000       0.0000      0.95275E-10
    2    -79.805       0.0000       0.0000       0.0000       0.0000       79.805       0.0000       0.0000       0.0000       0.0000       0.0000       0.0000       0.0000    
    3     0.0000       0.0000       0.0000       20.820       0.0000       58.985      -79.805       0.0000       0.0000       0.0000       0.0000       0.0000     -0.95596E-10
    4     0.0000      0.20000       0.0000       28.995       0.0000       22.703      -51.898       0.0000       0.0000       0.0000       0.0000       0.0000     -0.60126E-10
    5     0.0000       0.0000       0.0000       22.703       0.0000       0.0000      -22.703       0.0000       0.0000       0.0000       0.0000       0.0000      0.54882E-10
     1 CALLS TO PCG ROUTINE FOR TIME STEP   7 IN STRESS PERIOD    5
     1 TOTAL ITERATIONS
 
 SOLVING FOR HEAD 
MODFLOW ITER.#  NEWTON-RAPHSON ITER.#   MAXIMUM NODE HEAD CHANGE
         1                   1                  0.0000000000
         1                   2                  0.0000000000
         1                   3                  0.0000000000


Solver Convergence Information:
                              HClose:  6.5298877E-12
                              RClose:  2.6833732E-8
                           L2-RClose:  4.9446646E-8
                         Rel-Vol-Err:  0.0
 
MODFLOW ITER.#  NEWTON-RAPHSON ITER.#   MAXIMUM NODE HEAD CHANGE
         1                   1                  0.0000000000
         1                   2                  0.0000000000
         1                   3                  0.0000000000

 NO OUTPUT CONTROL FOR STRESS PERIOD      5   TIME STEP     8
 
 
 CFPM1 CRITERION OF CONVERGENCE:     0.1000000E-05
 CFPM1 MAXIMUM NUMBER OF ITERATIONS:   100
 
 
 CFPM1 RESULTS +++++++++++++++++++++++++++++++++++++++++++++++++++++++
 
 STRESS PERIOD/TIME STEP           5           8
 
NUMBER OF NEWTON RHAPSON ITERATIONS:     3
 
 ------- RESULTS OF FLOW CALCULATION -------
 
NODE#  NODE HEAD[M]   MATRIX HEAD [M] EXCHANGE [M^3/D]      CAD STORAGE    CADS RECHARGE         PFPSFLOW  DIRECT RECHARGE            QWELL             FHLQ           CAUCHY        CAUCHY LQ              QLH             QFIX
    1  20.00731          20.09754        -7.086594         0.000000         0.000000         0.000000         0.000000         0.000000         0.000000         0.000000         0.000000         0.000000         0.000000    
    2  20.00    FIX      20.00000         0.000000         0.000000         0.000000         0.000000         0.000000         0.000000         0.000000         0.000000         0.000000         0.000000        -79.80472    
    3  20.00725          20.09561        -20.81968         0.000000         0.000000         0.000000         0.000000         0.000000         0.000000         0.000000         0.000000         0.000000         0.000000    
    4  20.01033          20.19492        -28.99514         0.000000         0.000000         0.000000        0.2000000         0.000000         0.000000         0.000000         0.000000         0.000000         0.000000    
    5  20.01093          20.30000        -22.70331         0.000000         0.000000         0.000000         0.000000         0.000000         0.000000         0.000000         0.000000         0.000000         0.000000    
 
TUBE  B  E  FLOW          Q [M^3/D]       DIAM.[M]        LEN.[M]        RE         RESIDENCE TIME [D]
   1   1   3   TURB.         7.08659        0.10000       10.00000     1169.30971        0.01108
   2   2   3   TURB.       -79.80472        0.10000       10.00000    13168.02366        0.00098
   3   3   4   TURB.       -51.89844        0.10000       10.00000     8563.40265        0.00151
   4   4   5   TURB.       -22.70331        0.10000       10.00000     3746.11562        0.00346
 

    BUDGET OF THE PIPE SYSTEM OF TIMESTEP    8 IN STRESS PERIOD    5
------------------------------------------------------------------------

  TOTAL SIMULATION TIME   480.000000000000      S
 
        CUMULATIVE VALUES (L**3)        RATES THIS TIME STEP (L**3/T)

            IN:                               IN:
     CONSTANT HEAD =   0.0000000          CONSTANT HEAD =   0.0000000    
   MATRIX EXCHANGE =   38210.339        MATRIX EXCHANGE =   79.604719    
     PIPE RECHARGE =   106.00000          PIPE RECHARGE =  0.20000000    
       PFP STORAGE =   0.0000000            PFP STORAGE =   0.0000000    

     CUMULATIVE IN =   38316.339               TOTAL IN =   79.804719    

           OUT:                               OUT:
     CONSTANT HEAD =   38316.339          CONSTANT HEAD =   79.804719    
   MATRIX EXCHANGE =   0.0000000        MATRIX EXCHANGE =   0.0000000    
     PIPE RECHARGE =   0.0000000          PIPE RECHARGE =   0.0000000    
       PFP STORAGE =   0.0000000            PFP STORAGE =   0.0000000    

    CUMULATIVE OUT =   38316.339              TOTAL OUT =   79.804719    

          IN - OUT = -0.75669959E-09           IN - OUT =  0.45190518E-11
     PERCENT ERROR = -0.00                PERCENT ERROR =  0.00


 
 ------------------------NODE WATER BUDGET-----------------------
  STRESS PERIOD           5  TIME STEP           8
 TOTAL SIMULATION TIME   480.000000000000     
 
 FLOW TO THE NODE IN M^3/D
 
 NODE     FIXED HEAD     RECHARGE        QWELL  MATRIX EXCH      STORAGE      TUBE_IN     TUBE_OUT         CADS     FHLQ(LQ)       CAUCHY   CAUCHY(LQ)          QLH     IN - OUT
    1     0.0000       0.0000       0.0000       7.0866       0.0000       0.0000      -7.0866       0.0000       0.0000       0.0000       0.0000       0.0000     -0.40055E-10
    2    -79.805       0.0000       0.0000       0.0000       0.0000       79.805       0.0000       0.0000       0.0000       0.0000       0.0000       0.0000       0.0000    
    3     0.0000       0.0000       0.0000       20.820       0.0000       58.985      -79.805       0.0000       0.0000       0.0000       0.0000       0.0000      0.58549E-10
    4     0.0000      0.20000       0.0000       28.995       0.0000       22.703      -51.898       0.0000       0.0000       0.0000       0.0000       0.0000     -0.17735E-10
    5     0.0000       0.0000       0.0000       22.703       0.0000       0.0000      -22.703       0.0000       0.0000       0.0000       0.0000       0.0000      0.37552E-11
     1 CALLS TO PCG ROUTINE FOR TIME STEP   8 IN STRESS PERIOD    5
     1 TOTAL ITERATIONS
 
 SOLVING FOR HEAD 
MODFLOW ITER.#  NEWTON-RAPHSON ITER.#   MAXIMUM NODE HEAD CHANGE
         1                   1                  0.0000000000
         1                   2                  0.0000000000
         1                   3                  0.0000000000


Solver Convergence Information:
                              HClose:  2.8776981E-12
                              RClose:  1.2922101E-8
                           L2-RClose:  2.4596026E-8
                         Rel-Vol-Err:  0.0
 
MODFLOW ITER.#  NEWTON-RAPHSON ITER.#   MAXIMUM NODE HEAD CHANGE
         1                   1                  0.0000000000
         1                   2                  0.0000000000
         1                   3                  0.0000000000

 NO OUTPUT CONTROL FOR STRESS PERIOD      5   TIME STEP     9
 
 
 CFPM1 CRITERION OF CONVERGENCE:     0.1000000E-05
 CFPM1 MAXIMUM NUMBER OF ITERATIONS:   100
 
 
 CFPM1 RESULTS +++++++++++++++++++++++++++++++++++++++++++++++++++++++
 
 STRESS PERIOD/TIME STEP           5           9
 
NUMBER OF NEWTON RHAPSON ITERATIONS:     3
 
 ------- RESULTS OF FLOW CALCULATION -------
 
NODE#  NODE HEAD[M]   MATRIX HEAD [M] EXCHANGE [M^3/D]      CAD STORAGE    CADS RECHARGE         PFPSFLOW  DIRECT RECHARGE            QWELL             FHLQ           CAUCHY        CAUCHY LQ              QLH             QFIX
    1  20.00731          20.09754        -7.086594         0.000000         0.000000         0.000000         0.000000         0.000000         0.000000         0.000000         0.000000         0.000000         0.000000    
    2  20.00    FIX      20.00000         0.000000         0.000000         0.000000         0.000000         0.000000         0.000000         0.000000         0.000000         0.000000         0.000000        -79.80472    
    3  20.00725          20.09561        -20.81968         0.000000         0.000000         0.000000         0.000000         0.000000         0.000000         0.000000         0.000000         0.000000         0.000000    
    4  20.01033          20.19492        -28.99514         0.000000         0.000000         0.000000        0.2000000         0.000000         0.000000         0.000000         0.000000         0.000000         0.000000    
    5  20.01093          20.30000        -22.70331         0.000000         0.000000         0.000000         0.000000         0.000000         0.000000         0.000000         0.000000         0.000000         0.000000    
 
TUBE  B  E  FLOW          Q [M^3/D]       DIAM.[M]        LEN.[M]        RE         RESIDENCE TIME [D]
   1   1   3   TURB.         7.08659        0.10000       10.00000     1169.30971        0.01108
   2   2   3   TURB.       -79.80472        0.10000       10.00000    13168.02366        0.00098
   3   3   4   TURB.       -51.89844        0.10000       10.00000     8563.40265        0.00151
   4   4   5   TURB.       -22.70331        0.10000       10.00000     3746.11562        0.00346
 

    BUDGET OF THE PIPE SYSTEM OF TIMESTEP    9 IN STRESS PERIOD    5
------------------------------------------------------------------------

  TOTAL SIMULATION TIME   490.000000000000      S
 
        CUMULATIVE VALUES (L**3)        RATES THIS TIME STEP (L**3/T)

            IN:                               IN:
     CONSTANT HEAD =   0.0000000          CONSTANT HEAD =   0.0000000    
   MATRIX EXCHANGE =   39006.386        MATRIX EXCHANGE =   79.604719    
     PIPE RECHARGE =   108.00000          PIPE RECHARGE =  0.20000000    
       PFP STORAGE =   0.0000000            PFP STORAGE =   0.0000000    

     CUMULATIVE IN =   39114.386               TOTAL IN =   79.804719    

           OUT:                               OUT:
     CONSTANT HEAD =   39114.386          CONSTANT HEAD =   79.804719    
   MATRIX EXCHANGE =   0.0000000        MATRIX EXCHANGE =   0.0000000    
     PIPE RECHARGE =   0.0000000          PIPE RECHARGE =   0.0000000    
       PFP STORAGE =   0.0000000            PFP STORAGE =   0.0000000    

    CUMULATIVE OUT =   39114.386              TOTAL OUT =   79.804719    

          IN - OUT = -0.71304385E-09           IN - OUT =  0.44906301E-11
     PERCENT ERROR = -0.00                PERCENT ERROR =  0.00


 
 ------------------------NODE WATER BUDGET-----------------------
  STRESS PERIOD           5  TIME STEP           9
 TOTAL SIMULATION TIME   490.000000000000     
 
 FLOW TO THE NODE IN M^3/D
 
 NODE     FIXED HEAD     RECHARGE        QWELL  MATRIX EXCH      STORAGE      TUBE_IN     TUBE_OUT         CADS     FHLQ(LQ)       CAUCHY   CAUCHY(LQ)          QLH     IN - OUT
    1     0.0000       0.0000       0.0000       7.0866       0.0000       0.0000      -7.0866       0.0000       0.0000       0.0000       0.0000       0.0000     -0.71027E-10
    2    -79.805       0.0000       0.0000       0.0000       0.0000       79.805       0.0000       0.0000       0.0000       0.0000       0.0000       0.0000       0.0000    
    3     0.0000       0.0000       0.0000       20.820       0.0000       58.985      -79.805       0.0000       0.0000       0.0000       0.0000       0.0000      0.75076E-10
    4     0.0000      0.20000       0.0000       28.995       0.0000       22.703      -51.898       0.0000       0.0000       0.0000       0.0000       0.0000     -0.44338E-11
    5     0.0000       0.0000       0.0000       22.703       0.0000       0.0000      -22.703       0.0000       0.0000       0.0000       0.0000       0.0000      0.48708E-11
     1 CALLS TO PCG ROUTINE FOR TIME STEP   9 IN STRESS PERIOD    5
     1 TOTAL ITERATIONS
 
 SOLVING FOR HEAD 
MODFLOW ITER.#  NEWTON-RAPHSON ITER.#   MAXIMUM NODE HEAD CHANGE
         1                   1                  0.0000000000
         1                   2                  0.0000000000
         1                   3                  0.0000000000


Solver Convergence Information:
                              HClose:  1.5099033E-12
                              RClose:  6.1118044E-9
                           L2-RClose:  1.1275321E-8
                         Rel-Vol-Err:  0.0
 
MODFLOW ITER.#  NEWTON-RAPHSON ITER.#   MAXIMUM NODE HEAD CHANGE
         1                   1                  0.0000000000
         1                   2                  0.0000000000
         1                   3                  0.0000000000

 NO OUTPUT CONTROL FOR STRESS PERIOD      5   TIME STEP    10
 
 
 CFPM1 CRITERION OF CONVERGENCE:     0.1000000E-05
 CFPM1 MAXIMUM NUMBER OF ITERATIONS:   100
 
 
 CFPM1 RESULTS +++++++++++++++++++++++++++++++++++++++++++++++++++++++
 
 STRESS PERIOD/TIME STEP           5          10
 
NUMBER OF NEWTON RHAPSON ITERATIONS:     3
 
 ------- RESULTS OF FLOW CALCULATION -------
 
NODE#  NODE HEAD[M]   MATRIX HEAD [M] EXCHANGE [M^3/D]      CAD STORAGE    CADS RECHARGE         PFPSFLOW  DIRECT RECHARGE            QWELL             FHLQ           CAUCHY        CAUCHY LQ              QLH             QFIX
    1  20.00731          20.09754        -7.086594         0.000000         0.000000         0.000000         0.000000         0.000000         0.000000         0.000000         0.000000         0.000000         0.000000    
    2  20.00    FIX      20.00000         0.000000         0.000000         0.000000         0.000000         0.000000         0.000000         0.000000         0.000000         0.000000         0.000000        -79.80472    
    3  20.00725          20.09561        -20.81968         0.000000         0.000000         0.000000         0.000000         0.000000         0.000000         0.000000         0.000000         0.000000         0.000000    
    4  20.01033          20.19492        -28.99514         0.000000         0.000000         0.000000        0.2000000         0.000000         0.000000         0.000000         0.000000         0.000000         0.000000    
    5  20.01093          20.30000        -22.70331         0.000000         0.000000         0.000000         0.000000         0.000000         0.000000         0.000000         0.000000         0.000000         0.000000    
 
TUBE  B  E  FLOW          Q [M^3/D]       DIAM.[M]        LEN.[M]        RE         RESIDENCE TIME [D]
   1   1   3   TURB.         7.08659        0.10000       10.00000     1169.30971        0.01108
   2   2   3   TURB.       -79.80472        0.10000       10.00000    13168.02366        0.00098
   3   3   4   TURB.       -51.89844        0.10000       10.00000     8563.40265        0.00151
   4   4   5   TURB.       -22.70331        0.10000       10.00000     3746.11562        0.00346
 

    BUDGET OF THE PIPE SYSTEM OF TIMESTEP   10 IN STRESS PERIOD    5
------------------------------------------------------------------------

  TOTAL SIMULATION TIME   500.000000000000      S
 
        CUMULATIVE VALUES (L**3)        RATES THIS TIME STEP (L**3/T)

            IN:                               IN:
     CONSTANT HEAD =   0.0000000          CONSTANT HEAD =   0.0000000    
   MATRIX EXCHANGE =   39802.434        MATRIX EXCHANGE =   79.604719    
     PIPE RECHARGE =   110.00000          PIPE RECHARGE =  0.20000000    
       PFP STORAGE =   0.0000000            PFP STORAGE =   0.0000000    

     CUMULATIVE IN =   39912.434               TOTAL IN =   79.804719    

           OUT:                               OUT:
     CONSTANT HEAD =   39912.434          CONSTANT HEAD =   79.804719    
   MATRIX EXCHANGE =   0.0000000        MATRIX EXCHANGE =   0.0000000    
     PIPE RECHARGE =   0.0000000          PIPE RECHARGE =   0.0000000    
       PFP STORAGE =   0.0000000            PFP STORAGE =   0.0000000    

    CUMULATIVE OUT =   39912.434              TOTAL OUT =   79.804719    

          IN - OUT = -0.80035534E-09           IN - OUT = -0.94786401E-11
     PERCENT ERROR = -0.00                PERCENT ERROR = -0.00


 
 ------------------------NODE WATER BUDGET-----------------------
  STRESS PERIOD           5  TIME STEP          10
 TOTAL SIMULATION TIME   500.000000000000     
 
 FLOW TO THE NODE IN M^3/D
 
 NODE     FIXED HEAD     RECHARGE        QWELL  MATRIX EXCH      STORAGE      TUBE_IN     TUBE_OUT         CADS     FHLQ(LQ)       CAUCHY   CAUCHY(LQ)          QLH     IN - OUT
    1     0.0000       0.0000       0.0000       7.0866       0.0000       0.0000      -7.0866       0.0000       0.0000       0.0000       0.0000       0.0000      0.10510E-09
    2    -79.805       0.0000       0.0000       0.0000       0.0000       79.805       0.0000       0.0000       0.0000       0.0000       0.0000       0.0000       0.0000    
    3     0.0000       0.0000       0.0000       20.820       0.0000       58.985      -79.805       0.0000       0.0000       0.0000       0.0000       0.0000     -0.12825E-09
    4     0.0000      0.20000       0.0000       28.995       0.0000       22.703      -51.898       0.0000       0.0000       0.0000       0.0000       0.0000      0.46185E-11
    5     0.0000       0.0000       0.0000       22.703       0.0000       0.0000      -22.703       0.0000       0.0000       0.0000       0.0000       0.0000      0.90559E-11
     1 CALLS TO PCG ROUTINE FOR TIME STEP  10 IN STRESS PERIOD    5
     1 TOTAL ITERATIONS

 MAXIMUM HEAD CHANGE FOR EACH ITERATION (1 INDICATES THE FIRST INNER ITERATION):

    HEAD CHANGE    HEAD CHANGE    HEAD CHANGE    HEAD CHANGE    HEAD CHANGE 
   LAYER,ROW,COL  LAYER,ROW,COL  LAYER,ROW,COL  LAYER,ROW,COL  LAYER,ROW,COL
 ---------------------------------------------------------------------------
  1 -0.1510E-11
   (  1,  2,  3)

 MAXIMUM RESIDUAL FOR EACH ITERATION (1 INDICATES THE FIRST INNER ITERATION):

    RESIDUAL       RESIDUAL       RESIDUAL       RESIDUAL       RESIDUAL    
   LAYER,ROW,COL  LAYER,ROW,COL  LAYER,ROW,COL  LAYER,ROW,COL  LAYER,ROW,COL
 ---------------------------------------------------------------------------
  1  0.6079E-08
   (  1,  3,  2)





  -------------------------------------------------------------------------------------
  VOLUMETRIC BUDGET FOR ENTIRE MODEL AT END OF TIME STEP   10 IN STRESS PERIOD      5
  -------------------------------------------------------------------------------------

     CUMULATIVE VOLUMES      L**3       RATES FOR THIS TIME STEP      L**3/T
     ------------------                 ------------------------

           IN:                                      IN:
           ---                                      ---
             STORAGE =       4.1816E-06               STORAGE =       2.3653E-15
       CONSTANT HEAD =      625300.9093         CONSTANT HEAD =        1250.6688
            RECHARGE =         770.0000              RECHARGE =           1.4000
               PIPES =           0.0000                 PIPES =           0.0000

            TOTAL IN =      626070.9093              TOTAL IN =        1252.0688

          OUT:                                     OUT:
          ----                                     ----
             STORAGE =       2.7877E-06               STORAGE =       4.1633E-17
       CONSTANT HEAD =      586268.4752         CONSTANT HEAD =        1172.4641
            RECHARGE =           0.0000              RECHARGE =           0.0000
               PIPES =       39802.4336                 PIPES =          79.6047

           TOTAL OUT =      626070.9088             TOTAL OUT =        1252.0688

            IN - OUT =       5.1243E-04              IN - OUT =      -3.9586E-10

 PERCENT DISCREPANCY =           0.00     PERCENT DISCREPANCY =          -0.00


          TIME SUMMARY AT END OF TIME STEP    10 IN STRESS PERIOD      5
                    SECONDS     MINUTES      HOURS       DAYS        YEARS
                    -----------------------------------------------------------
   TIME STEP LENGTH 8.64000E+05  14400.      240.00      10.000     2.73785E-02
 STRESS PERIOD TIME 8.64000E+06 1.44000E+05  2400.0      100.00     0.27379    
         TOTAL TIME 4.32000E+07 7.20000E+05  12000.      500.00      1.3689    
 

 Final Remark:

   The solver successfully met the user supplied convergence criteria, HCLOSE and RCLOSE, for all 41 time steps.

   Please check the "VOLUMETRIC BUDGET FOR ENTIRE MODEL" to ensure that mass rate balance errors are acceptable for all time steps.

   The cumulative mass error for the entire simulation is 0.00 %




 Simulation finished at  


 Which had an elapsed run time of: 0.0 seconds


    OneWater Simulation Now Complete


