ðŸ’§ðŸ§™ðŸ’¦ðŸŒŠ  <-These symbols help text editors identify file as Unicode UTF8.
                    UTF8 is not necessary to view numerical results, but no UTF8 support can have artifacts where non-ascii symbols are used (such as the degree symbol).


MODFLOW-OWHM v2.3.0

      MMMMMMM                                       MM      MMM     MM
    MMM     MMM    MM      M   MMMMMMMM             LM     DM M     ML     MM     MMMMMMMMM  MMMMMMMM  MMMMMMMM
   MM         MM   MMM     M   MM                    MM    MM M     M     MMMM        M      M         MM     NM
   MM         MM   MM M    M   MM                    MM    M  MM   MM    MM  MM       M      M         MM      M
   MM         MM   MM  M   M   MMMMMMMM               MN  MM   M   MM   MM    MM      M      MMMMMMM   MMMMMMMMM
   MM         MM   MM   M  M   MM         MMMMMMM     MM  M    MM MM    MMMMMMMM      M      M         MM   MM
   MM         MM   MM    M M   MM                     LM MM    NM MM   MM      MM     M      M         MM    MM
    MM       NM    MM     MM   MM                      M M      M M   MN        MM    M      M         MM     MM
     MMMMMMMMN     MM      M   MMMMMMMM                7MM      7MM  MN          MM   M      MMMMMMMM  MM      MM


                        MODFLOW
            ONE-WATER HYDROLOGIC-FLOW MODEL

    U.S. Geological Survey Modular Finite-Difference
           Conjunctive Use Simulation Program

                      Version 2.3

 Release: 0

 Includes the following base versions with enhancements:

          MODFLOW-2005 Version 1.12
          MODFLOW-FMP  Version 4.1
          MODFLOW-SWR  Version 1.04
          MODFLOW-SWI  Version 2.0
          MODFLOW-LGR  Version 2.0
          MODFLOW-NWT  Version 1.3
          MODFLOW-CFP  Version 1.09.57
                  SWO  Version 1.0

------------------------------------------------------------------------------------
USGS Software Disclaimer:                                                          |
                                                                                   |
   No warranty, expressed or implied, is made by the USGS or the U.S. Government   |
   as to the functionality of the software and related material nor shall the      |
   fact of release constitute any such warranty.                                   |
                                                                                   |
   The software is provided on the condition that neither the USGS nor             |
   the U.S. Government shall be held liable for any damages resulting from the     |
   authorized or unauthorized use of the software.                                 |
                                                                                   |
   Newer versions may be present at the official code and download repository:     |
      https://code.usgs.gov/modflow/mf-owhm                                        |
                                                                                   |
------------------------------------------------------------------------------------

âˆ™âˆ™âˆ™âˆ™âˆ™âˆ™âˆ™âˆ™âˆ™âˆ™âˆ™âˆ™âˆ™âˆ™âˆ™âˆ™âˆ™âˆ™âˆ™âˆ™âˆ™âˆ™âˆ™âˆ™âˆ™âˆ™âˆ™âˆ™âˆ™âˆ™âˆ™âˆ™âˆ™âˆ™âˆ™âˆ™âˆ™âˆ™âˆ™âˆ™âˆ™âˆ™âˆ™âˆ™âˆ™âˆ™âˆ™âˆ™âˆ™âˆ™âˆ™âˆ™âˆ™âˆ™âˆ™âˆ™âˆ™âˆ™âˆ™âˆ™âˆ™âˆ™
    OneWater Simulation Initiated at  
âˆ™âˆ™âˆ™âˆ™âˆ™âˆ™âˆ™âˆ™âˆ™âˆ™âˆ™âˆ™âˆ™âˆ™âˆ™âˆ™âˆ™âˆ™âˆ™âˆ™âˆ™âˆ™âˆ™âˆ™âˆ™âˆ™âˆ™âˆ™âˆ™âˆ™âˆ™âˆ™âˆ™âˆ™âˆ™âˆ™âˆ™âˆ™âˆ™âˆ™âˆ™âˆ™âˆ™âˆ™âˆ™âˆ™âˆ™âˆ™âˆ™âˆ™âˆ™âˆ™âˆ™âˆ™âˆ™âˆ™âˆ™âˆ™âˆ™âˆ™âˆ™âˆ™


 LIST FILE: ./output/exch.lst
      UNIT: 7

OPENING DATA FILES [DATA AND DATA(BINARY)]

OPENED DATA FILE ON UNIT     50 WITH FILENAME OF: ./output/exch.cbc
OPENED DATA FILE ON UNIT     51 WITH FILENAME OF: ./output/exch.hds

OPENING PACKAGES

BAS6 PACKAGE OPENED.
DIS  PACKAGE OPENED.
BCF  PACKAGE OPENED.
PCG  PACKAGE OPENED.
CFP  PACKAGE OPENED.
OC   PACKAGE OPENED.

NOTIFICATION: A FILE UNIT NUMBER WAS FOUND FOR EITHER THE LIST FILE OR A PACAKGE.
IT WILL BE USED EVEN THOUGH UNIT NUMBERS FOR THE LIST FILE AND PACKAGES ARE NOW OPTIONAL.
[IT IS RECOMMENDED TO STILL USE A UNIT NUMBER FOR DATA and DATA(BINARY) ]


 BAS -- BASIC PACKAGE, VERSION OWHM INPUT READ FROM UNIT     1
 
MODFLOW was compiled using uniform precision (Precision => Number of meaningful digits in numbers)
Precision of REAL and DOUBLE PRECISION variables: 15

 DISCRETIZATION INPUT DATA READ FROM UNIT    2

*** DIS COORDINATE SYSTEM NOT SEPECIFIED ***
DEFAULT VALUES APPLIED ARE 0Â° ROTATION
WITH THE ORIGIN (0,0) LOCATED AT THE MODEL'S LOWER LEFT CORNER




DIS COORDINATE SYSTEM SEPECIFIED WITH:
GRID ROTATION OF 0.0Â°
WITH THE ORIGIN LOCATED AT THE OUTER MOST CORNER OF MODEL CELL [4,1] WITH:
X-COORDINATE:0.0
Y-COORDINATE:0.0
    1 LAYERS         4 ROWS         5 COLUMNS
      5 STRESS PERIOD(S) IN SIMULATION
 MODEL TIME UNIT IS SECONDS
 MODEL LENGTH UNIT IS METERS
  Confining bed flag for each layer:
   0

                     DELR =   10.0000    

                     DELC =   10.0000    

 TOP ELEVATION OF LAYER 1 =   10.0000    

   MODEL LAYER BOTTOM EL. =   0.00000     FOR LAYER   1


 STRESS PERIOD     LENGTH       TIME STEPS     MULTIPLIER FOR DELT    SS FLAG  (OPTIONAL TIME STEP LENGTH)
 ---------------------------------------------------------------------------------------------------
        1         100.0000         10                  1.00000         SS
        2         100.0000         10                  1.00000         TR
        3         100.0000         10                  1.00000         TR
        4         100.0000         10                  1.00000         TR
        5         100.0000         10                  1.00000         TR

 COMBINED STEADY-STATE AND TRANSIENT SIMULATION




-- READING BAS PACKAGE INPUT --

#1 layer, 4 rows, 5 columns; transient


 THE BAS PACKAGE NOW DEFAULTS TO FREE FORMAT.
 USE OPTION "NOFREE" TO DISABLE FREE FORMAT.

 NOW READING BAS OPTIONS

 Found Option: COMPACT

 Found Option: NO_SHOWPROGRESS

 Found Option: BUDGETDB

 Found Option: PRINT_HEAD
                 NPER       ./output/Head_NPER.txt

 Found Option: CUMULATIVE_HEAD_CHANGE
                 Cumulative sum of absolute head differences for the entire model.
                 This is a diagnostic feature meant for comparing MF-OWHM code versions with the same model input (software unit test).


 Setting up PRINT_HEAD option for 
    SP    TS   FILE
     5    10   ./output/Head_NPER.txt

 The total simulation limit for the number PARAMETERs defined is: 
     Max number of PARAMETERs (MXPAR)  is       2000
     Max number of INSTANCEs  (MXINST) is      50000
     Max number of CLUSTERs   (MXCLST) is    2000000




                     BOUNDARY ARRAY FOR LAYER   1
 READING ON UNIT    1 WITH FORMAT: (5I3)               

      1 2 3 4 5
 ..............
   1  1 1 * 1 1
   2  1 1 1 1 1
   3  1 1 1 1 1
   4  * * * * *

 AQUIFER HEAD WILL BE SET TO -999.00000 AT ALL NO-FLOW NODES (IBOUND=0).




                       INITIAL HEAD FOR LAYER   1
 READING ON UNIT    1 WITH FORMAT: (5G11.4)            

           1          2          3          4          5
 .......................................................
   1    10.0       10.0       10.0       10.0       10.0    
   2    10.0       10.0       10.0       10.0       10.0    
   3    10.0       10.0       10.0       10.0       10.0    
   4    11.0       11.0       11.0       11.0       11.0    

 OUTPUT CONTROL IS SPECIFIED ONLY AT TIME STEPS FOR WHICH OUTPUT IS DESIRED
 HEADS WILL BE SAVED WITH FORMAT: (5F8.4)             
 SAVED HEADS WILL BE LABELED
 HEAD PRINT FORMAT CODE IS  21    DRAWDOWN PRINT FORMAT CODE IS   0
 HEADS WILL BE SAVED ON UNIT   51    DRAWDOWNS WILL BE SAVED ON UNIT    0  WATER BUDGETs WILL BE SAVED ON UNIT 

 BCF -- BLOCK-CENTERED FLOW PACKAGE, VERSION 7, 5/2/2005
         INPUT READ FROM UNIT 11
 TRANSIENT SIMULATION
 CELL-BY-CELL FLOWS WILL BE SAVED ON UNIT 50
 HEAD AT CELLS THAT CONVERT TO DRY=   999.00    
 WETTING CAPABILITY IS NOT ACTIVE
      LAYER  LAYER-TYPE CODE     INTERBLOCK T
      --------------------------------------------
         1            3          0 -- HARMONIC    

 COLUMN TO ROW ANISOTROPY =   1.00000    

     PRIMARY STORAGE COEF =  0.200000     FOR LAYER   1

    HYD. COND. ALONG ROWS =  7.000000E-05 FOR LAYER   1

   SECONDARY STORAGE COEF =  7.000000E-05 FOR LAYER   1

 PCG -- CONJUGATE-GRADIENT SOLUTION PACKAGE, VERSION OWHM
 MAXIMUM OF     20 CALLS OF SOLUTION ROUTINE
 MAXIMUM OF     10 INTERNAL ITERATIONS PER CALL TO SOLUTION ROUTINE
 MATRIX PRECONDITIONING TYPE :    1
 IHCOFADD option -- When an active cell is surrounded by dry cells, convert
 the cell to dry only if storage and head-dependent boundary flow are 0.



                                    SOLUTION BY THE CONJUGATE-GRADIENT METHOD
                                   -------------------------------------------
                    MAXIMUM NUMBER OF CALLS TO PCG ROUTINE =       20
                        MAXIMUM ITERATIONS PER CALL TO PCG =       10
                               MATRIX PRECONDITIONING TYPE =        1
        RELAXATION FACTOR (ONLY USED WITH PRECOND. TYPE 1) =    0.10000E+01
 PARAMETER OF POLYNOMIAL PRECOND. = 2 (2) OR IS CALCULATED :        2
                         HEAD CHANGE CRITERION FOR CLOSURE =    0.10000E-06
                     RESIDUAL CHANGE CRITERION FOR CLOSURE =    0.10000E+01
            PCG HEAD AND RESIDUAL CHANGE PRINTOUT INTERVAL =        5
     PRINTING FROM SOLVER IS LIMITED(1) OR SUPPRESSED (>1) =        0
                            STEADY-STATE DAMPING PARAMETER =    0.10000E+01
                               TRANSIENT DAMPING PARAMETER =    0.10000E+01
 
 CFP1AR READING FROM UNIT          16
 CFP NOW REQUIRES COMMENT LINES TO BE PRECEDED BY A #

 PROCESSING CFP OPTION BLOCK
      OUT_DIRECTORY option found
          CFP node*.out and tube*.out will be placed in: "./output/"
 ---------------------------------
 CFP MODE 1 IS ACTIVE (PIPES) 
 ---------------------------------

#data for the conduit system
#number of nodes / tubes / layers

    NUMBER OF NODES IS     4
    NUMBER OF TUBES IS     3
    NUMBER OF LAYERS IS    1
 GRAVITATIONAL CONSTANT (G) COMPUTED 

#temperature

 WATER TEMPERATURE, IN DEGREES CELCIUS, IS    10.0000000000000     
  KINEMATIC VISCOSITY [L^2/T]=  1.307568525664806E-006

#No  mc mr ml Nb1  Nb2  Nb3  Nb4 Nb5  Nb6 tb1 tb2 tb3 tb4 tb5 tb6

 
  NBR-ARRAY
    NO_N,  MC,  MR,  ML, NB1, NB2, NB3, NB4, NB5, NB6, PB1, PB2, PB3, PB4, PB5, PB6
         1      3     1     1      2     0     0     0     0     0      1     0     0     0     0     0
         2      3     2     1      1     3     0     0     0     0      1     2     0     0     0     0
         3      3     3     1      2     4     0     0     0     0      2     3     0     0     0     0
         4      3     4     1      3     0     0     0     0     0      3     0     0     0     0     0

#Node elevations, Two possibilites
#first: node #, elevation
#second: number of nodes, distance from centroid (only one line)

  NODE ELEVATIONS:
           1   5.00000000000000     
           2   5.00000000000000     
           3   5.00000000000000     
           4   5.00000000000000     

#surface dependent exchange (set 1) or constant exchange (set 0)


#criterion for convergence


#maximum number for loop iterations


#parameter of relaxation


#Newton Rhapson Print Flag

 P_NR               1
 L_NTS              0
 FINISHED READING NEWTON RAPHSON ITERATION CONTROLS
 READING NODE AND TUBE DATA

#data of tube parameters:
#no. diameter  tort     roughness   lcritrey   tcritrey

NO_P   DIAMETER  TORTUOSITY  RHEIGHT  LCRITREY_P TCRITREY_P
   1.     1.000        1.00   0.0000     2000.00    4000.00
   2.     1.000        1.00   0.0000     2000.00    4000.00
   3.     1.000        1.00   0.0000     2000.00    4000.00

#node heads (if head unequal -1 the head is fixed)

 READING NODE BOUNDARY CONDITIONS (FIXED HEADS, IBOUNDS, AND FBCs)
  NODE  HEAD AND/OR IBOUND
 FBC OPTION NOT ENABLED, READING ORIGINAL FORMULATION INPUT:
        NO_N  N_HEAD
           1   9.50000000000000     
           2   9.50000000000000     
           3   9.50000000000000     
           4   9.50000000000000     
 SURFACE-AREA DEPENDENT EXCHANGE IS ACTIVE
 READING EXCHANGE COEFFICIENTS
 NODE_I  K_EXCHANGE(I)
   1     0.1000E-03
   2     0.1000E-03
   3     0.1000E-03
   4     0.1000E-03
 PROCESSING AND CHECKING CONDUIT-NETWORK
 TESTING THE CONDUIT NETWORK:
    CONSTANT HEAD NODE    2 OF CONDUIT NETWORK IS NOT CONSTANT-HEAD MODFLOW CELL
    CONSTANT HEAD NODE    3 OF CONDUIT NETWORK IS NOT CONSTANT-HEAD MODFLOW CELL
  NO ERRORS DETECTED           `:) 
           2  WARNING(S) DETECTED `:| CHECK CONDUIT-GEOMETRY INPUT 
 BEGINNING CFPM1 SUBROUTINE DETERM_TUB
 BEGINNING CFPM1 SUBROUTINE GEOCALC THAT CALCULATES XYZ COORDINATES OF NODES
 TOP-ARRAY / BOT-ARRAY:
   10.0000000000000            0.000000000000000E+000
  NODE   COLUMN    ROW    LAY      X         Y            Z      
      1      3      1      1     25.0000     5.00000     5.00000    
      2      3      2      1     25.0000     15.0000     5.00000    
      3      3      3      1     25.0000     25.0000     5.00000    
      4      3      4      1     25.0000     35.0000     5.00000    
 
 BEGINNING CFPM1 LENGTH_CAL SUBROUTINE
 BEGINNING CFPM1 ROUGH_CAL SUBROUTINE


########################################################################################################

                           WARNING_MESSAGE

         THE FOLLOWING COMMENTS WERE PASSED TO THE WARNING ROUTINE

THE DESCRIPTION OF THE WARNING IS:

DIS PACKAGE: THE GROUND SURFACE ELEVATION WAS NOT SPECIFIED WITH THE KEYWORD "SURFACE_ELEVATION"

BEFORE LOADING THE "TOP" ARRAY FOR LAYER 1
NOR WAS IT DEFINED WITH ANOTHER PACKAGE   (e.g. FMPs GLOBAL DIMENSION KEYWORD "SURFACE_ELEVATION")

OneWater WILL SET THE GROUND SURFACE ELEVATION (GSE)
TO THE TOP ELEVATION OF THE UPPER MOST ACTIVE CELL OR THE DIS TOP OF LAY1.

NOTE THAT SFR DOES USE GSE FOR ALL DIVERSION SEGMENTS
   WHEN "IRDFLG" IS SET TO 2 or -2.

########################################################################################################



1
                            STRESS PERIOD NO.      1, LENGTH =   100.0000    
                            -----------------------------------------------

                              NUMBER OF TIME STEPS =    10

                               MULTIPLIER FOR DELT =     1.000

                            INITIAL TIME STEP SIZE =   10.00000    

PARAMETERS HAVE BEEN USED IN PACKAGES

THE CURRENT STORAGE FOR PARAMETERS IS: 
No. PARAMETER=         0 WITH MAX STORAGE (MXPAR)  OF      2000
No. CLUSTERS =         0 WITH MAX STORAGE (MXCLST) OF   2000000
No. INSTANCES=         0 WITH MAX STORAGE (MXINST) OF     50000

YOU CAN INCREASE/DECREASE STORAGE WITH BAS OPTION:
MAXPARAM  MXPAR  MXCLST MXINST

FYI, YOU CAN REDUCE RAM USUAGE WITH BAS OPTION
(NOTE THE THREE NUMBERS ARE A MINUMUM SIZE):
   MAXPARAM          1         1         1

 COMPUTE NODE LENGTH
 NODE I     L_NODE (I)
   1        5.000
   2       10.000
   3       10.000
   4        5.000
 
 SOLVING FOR HEAD 
  LAMINAR PRECALCULATION
MODFLOW ITER.#  NEWTON-RAPHSON ITER.#   MAXIMUM NODE HEAD CHANGE
         1                   1                  0.0000000000
  LAMINAR PRECALCULATION
MODFLOW ITER.#  NEWTON-RAPHSON ITER.#   MAXIMUM NODE HEAD CHANGE
         2                   1                  0.0000000000
  LAMINAR PRECALCULATION
MODFLOW ITER.#  NEWTON-RAPHSON ITER.#   MAXIMUM NODE HEAD CHANGE
         3                   1                  0.0000000000
  LAMINAR PRECALCULATION
MODFLOW ITER.#  NEWTON-RAPHSON ITER.#   MAXIMUM NODE HEAD CHANGE
         4                   1                  0.0000000000


Solver Convergence Information:
                              HClose:  9.0510193E-8
                              RClose:  5.0840984E-11
                           L2-RClose:  8.6623808E-11
                         Rel-Vol-Err:  0.0
 
  LAMINAR PRECALCULATION
MODFLOW ITER.#  NEWTON-RAPHSON ITER.#   MAXIMUM NODE HEAD CHANGE
         4                   1                  0.0000000000

 NO OUTPUT CONTROL FOR STRESS PERIOD      1   TIME STEP     1
 
 
 CFPM1 CRITERION OF CONVERGENCE:     0.1000000E-05
 CFPM1 MAXIMUM NUMBER OF ITERATIONS:   100
 
 
 CFPM1 RESULTS +++++++++++++++++++++++++++++++++++++++++++++++++++++++
 
 STRESS PERIOD/TIME STEP           1           1
 
NUMBER OF NEWTON RHAPSON ITERATIONS:     1
 
 ------- RESULTS OF FLOW CALCULATION -------
 
NODE#  NODE HEAD[M]   MATRIX HEAD [M] EXCHANGE [M^3/S]      CAD STORAGE    CADS RECHARGE         PFPSFLOW  DIRECT RECHARGE            QWELL             FHLQ           CAUCHY        CAUCHY LQ              QLH             QFIX
    1  9.500    FIX      10.00000       -0.7853982E-03     0.000000         0.000000         0.000000         0.000000         0.000000         0.000000         0.000000         0.000000         0.000000       -0.7853982E-03
    2  9.500    FIX      9.761658       -0.8220225E-03     0.000000         0.000000         0.000000         0.000000         0.000000         0.000000         0.000000         0.000000         0.000000       -0.8220225E-03
    3  9.500    FIX      9.922446       -0.1327154E-02     0.000000         0.000000         0.000000         0.000000         0.000000         0.000000         0.000000         0.000000         0.000000       -0.1327154E-02
    4  9.500    FIX      11.00000       -0.2356194E-02     0.000000         0.000000         0.000000         0.000000         0.000000         0.000000         0.000000         0.000000         0.000000       -0.2356194E-02
 
TUBE  B  E  FLOW          Q [M^3/SEC]     DIAM.[M]        LEN.[M]        RE         RESIDENCE TIME [S]
    WARNING! TUBE    1 ACTIVE BUT NO FLOW
   1   1   2   LAMI.         0.00000        1.00000       10.00000        0.00000        0.00000
    WARNING! TUBE    2 ACTIVE BUT NO FLOW
   2   2   3   LAMI.         0.00000        1.00000       10.00000        0.00000        0.00000
    WARNING! TUBE    3 ACTIVE BUT NO FLOW
   3   3   4   LAMI.         0.00000        1.00000       10.00000        0.00000        0.00000
 

    BUDGET OF THE PIPE SYSTEM OF TIMESTEP    1 IN STRESS PERIOD    1
------------------------------------------------------------------------

  TOTAL SIMULATION TIME   10.0000000000000      S
 
        CUMULATIVE VALUES (L**3)        RATES THIS TIME STEP (L**3/T)

            IN:                               IN:
     CONSTANT HEAD =   0.0000000          CONSTANT HEAD =   0.0000000    
   MATRIX EXCHANGE =  0.52907694E-01    MATRIX EXCHANGE =  0.52907694E-02
     PIPE RECHARGE =   0.0000000          PIPE RECHARGE =   0.0000000    
       PFP STORAGE =   0.0000000            PFP STORAGE =   0.0000000    

     CUMULATIVE IN =  0.52907694E-01           TOTAL IN =  0.52907694E-02

           OUT:                               OUT:
     CONSTANT HEAD =  0.52907694E-01      CONSTANT HEAD =  0.52907694E-02
   MATRIX EXCHANGE =   0.0000000        MATRIX EXCHANGE =   0.0000000    
     PIPE RECHARGE =   0.0000000          PIPE RECHARGE =   0.0000000    
       PFP STORAGE =   0.0000000            PFP STORAGE =   0.0000000    

    CUMULATIVE OUT =  0.52907694E-01          TOTAL OUT =  0.52907694E-02

          IN - OUT =   0.0000000               IN - OUT =   0.0000000    
     PERCENT ERROR =  0.00                PERCENT ERROR =  0.00


 
 ------------------------NODE WATER BUDGET-----------------------
  STRESS PERIOD           1  TIME STEP           1
 TOTAL SIMULATION TIME   10.0000000000000     
 
 FLOW TO THE NODE IN M^3/S
 
 NODE     FIXED HEAD     RECHARGE        QWELL  MATRIX EXCH      STORAGE      TUBE_IN     TUBE_OUT         CADS     FHLQ(LQ)       CAUCHY   CAUCHY(LQ)          QLH     IN - OUT
    1   -0.78540E-03   0.0000       0.0000      0.78540E-03   0.0000       0.0000       0.0000       0.0000       0.0000       0.0000       0.0000       0.0000       0.0000    
    2   -0.82202E-03   0.0000       0.0000      0.82202E-03   0.0000       0.0000       0.0000       0.0000       0.0000       0.0000       0.0000       0.0000       0.0000    
    3   -0.13272E-02   0.0000       0.0000      0.13272E-02   0.0000       0.0000       0.0000       0.0000       0.0000       0.0000       0.0000       0.0000       0.0000    
    4   -0.23562E-02   0.0000       0.0000      0.23562E-02   0.0000       0.0000       0.0000       0.0000       0.0000       0.0000       0.0000       0.0000       0.0000    


     4 CALLS TO PCG ROUTINE FOR TIME STEP   1 IN STRESS PERIOD    1
    21 TOTAL ITERATIONS
 
 SOLVING FOR HEAD 
  LAMINAR PRECALCULATION
MODFLOW ITER.#  NEWTON-RAPHSON ITER.#   MAXIMUM NODE HEAD CHANGE
         1                   1                  0.0000000000


Solver Convergence Information:
                              HClose:  2.9403635E-8
                              RClose:  2.4248624E-11
                           L2-RClose:  2.8964464E-11
                         Rel-Vol-Err:  0.0
 
  LAMINAR PRECALCULATION
MODFLOW ITER.#  NEWTON-RAPHSON ITER.#   MAXIMUM NODE HEAD CHANGE
         1                   1                  0.0000000000

 NO OUTPUT CONTROL FOR STRESS PERIOD      1   TIME STEP     2
 
 
 CFPM1 CRITERION OF CONVERGENCE:     0.1000000E-05
 CFPM1 MAXIMUM NUMBER OF ITERATIONS:   100
 
 
 CFPM1 RESULTS +++++++++++++++++++++++++++++++++++++++++++++++++++++++
 
 STRESS PERIOD/TIME STEP           1           2
 
NUMBER OF NEWTON RHAPSON ITERATIONS:     1
 
 ------- RESULTS OF FLOW CALCULATION -------
 
NODE#  NODE HEAD[M]   MATRIX HEAD [M] EXCHANGE [M^3/S]      CAD STORAGE    CADS RECHARGE         PFPSFLOW  DIRECT RECHARGE            QWELL             FHLQ           CAUCHY        CAUCHY LQ              QLH             QFIX
    1  9.500    FIX      10.00000       -0.7853982E-03     0.000000         0.000000         0.000000         0.000000         0.000000         0.000000         0.000000         0.000000         0.000000       -0.7853982E-03
    2  9.500    FIX      9.761658       -0.8220224E-03     0.000000         0.000000         0.000000         0.000000         0.000000         0.000000         0.000000         0.000000         0.000000       -0.8220224E-03
    3  9.500    FIX      9.922446       -0.1327154E-02     0.000000         0.000000         0.000000         0.000000         0.000000         0.000000         0.000000         0.000000         0.000000       -0.1327154E-02
    4  9.500    FIX      11.00000       -0.2356194E-02     0.000000         0.000000         0.000000         0.000000         0.000000         0.000000         0.000000         0.000000         0.000000       -0.2356194E-02
 
TUBE  B  E  FLOW          Q [M^3/SEC]     DIAM.[M]        LEN.[M]        RE         RESIDENCE TIME [S]
    WARNING! TUBE    1 ACTIVE BUT NO FLOW
   1   1   2   LAMI.         0.00000        1.00000       10.00000        0.00000        0.00000
    WARNING! TUBE    2 ACTIVE BUT NO FLOW
   2   2   3   LAMI.         0.00000        1.00000       10.00000        0.00000        0.00000
    WARNING! TUBE    3 ACTIVE BUT NO FLOW
   3   3   4   LAMI.         0.00000        1.00000       10.00000        0.00000        0.00000
 

    BUDGET OF THE PIPE SYSTEM OF TIMESTEP    2 IN STRESS PERIOD    1
------------------------------------------------------------------------

  TOTAL SIMULATION TIME   20.0000000000000      S
 
        CUMULATIVE VALUES (L**3)        RATES THIS TIME STEP (L**3/T)

            IN:                               IN:
     CONSTANT HEAD =   0.0000000          CONSTANT HEAD =   0.0000000    
   MATRIX EXCHANGE =  0.10581539        MATRIX EXCHANGE =  0.52907693E-02
     PIPE RECHARGE =   0.0000000          PIPE RECHARGE =   0.0000000    
       PFP STORAGE =   0.0000000            PFP STORAGE =   0.0000000    

     CUMULATIVE IN =  0.10581539               TOTAL IN =  0.52907693E-02

           OUT:                               OUT:
     CONSTANT HEAD =  0.10581539          CONSTANT HEAD =  0.52907693E-02
   MATRIX EXCHANGE =   0.0000000        MATRIX EXCHANGE =   0.0000000    
     PIPE RECHARGE =   0.0000000          PIPE RECHARGE =   0.0000000    
       PFP STORAGE =   0.0000000            PFP STORAGE =   0.0000000    

    CUMULATIVE OUT =  0.10581539              TOTAL OUT =  0.52907693E-02

          IN - OUT =   0.0000000               IN - OUT =   0.0000000    
     PERCENT ERROR =  0.00                PERCENT ERROR =  0.00


 
 ------------------------NODE WATER BUDGET-----------------------
  STRESS PERIOD           1  TIME STEP           2
 TOTAL SIMULATION TIME   20.0000000000000     
 
 FLOW TO THE NODE IN M^3/S
 
 NODE     FIXED HEAD     RECHARGE        QWELL  MATRIX EXCH      STORAGE      TUBE_IN     TUBE_OUT         CADS     FHLQ(LQ)       CAUCHY   CAUCHY(LQ)          QLH     IN - OUT
    1   -0.78540E-03   0.0000       0.0000      0.78540E-03   0.0000       0.0000       0.0000       0.0000       0.0000       0.0000       0.0000       0.0000       0.0000    
    2   -0.82202E-03   0.0000       0.0000      0.82202E-03   0.0000       0.0000       0.0000       0.0000       0.0000       0.0000       0.0000       0.0000       0.0000    
    3   -0.13272E-02   0.0000       0.0000      0.13272E-02   0.0000       0.0000       0.0000       0.0000       0.0000       0.0000       0.0000       0.0000       0.0000    
    4   -0.23562E-02   0.0000       0.0000      0.23562E-02   0.0000       0.0000       0.0000       0.0000       0.0000       0.0000       0.0000       0.0000       0.0000    
     1 CALLS TO PCG ROUTINE FOR TIME STEP   2 IN STRESS PERIOD    1
     1 TOTAL ITERATIONS
 
 SOLVING FOR HEAD 
  LAMINAR PRECALCULATION
MODFLOW ITER.#  NEWTON-RAPHSON ITER.#   MAXIMUM NODE HEAD CHANGE
         1                   1                  0.0000000000


Solver Convergence Information:
                              HClose:  5.9101346E-9
                              RClose:  3.4605860E-12
                           L2-RClose:  5.2028619E-12
                         Rel-Vol-Err:  0.0
 
  LAMINAR PRECALCULATION
MODFLOW ITER.#  NEWTON-RAPHSON ITER.#   MAXIMUM NODE HEAD CHANGE
         1                   1                  0.0000000000

 NO OUTPUT CONTROL FOR STRESS PERIOD      1   TIME STEP     3
 
 
 CFPM1 CRITERION OF CONVERGENCE:     0.1000000E-05
 CFPM1 MAXIMUM NUMBER OF ITERATIONS:   100
 
 
 CFPM1 RESULTS +++++++++++++++++++++++++++++++++++++++++++++++++++++++
 
 STRESS PERIOD/TIME STEP           1           3
 
NUMBER OF NEWTON RHAPSON ITERATIONS:     1
 
 ------- RESULTS OF FLOW CALCULATION -------
 
NODE#  NODE HEAD[M]   MATRIX HEAD [M] EXCHANGE [M^3/S]      CAD STORAGE    CADS RECHARGE         PFPSFLOW  DIRECT RECHARGE            QWELL             FHLQ           CAUCHY        CAUCHY LQ              QLH             QFIX
    1  9.500    FIX      10.00000       -0.7853982E-03     0.000000         0.000000         0.000000         0.000000         0.000000         0.000000         0.000000         0.000000         0.000000       -0.7853982E-03
    2  9.500    FIX      9.761658       -0.8220224E-03     0.000000         0.000000         0.000000         0.000000         0.000000         0.000000         0.000000         0.000000         0.000000       -0.8220224E-03
    3  9.500    FIX      9.922446       -0.1327154E-02     0.000000         0.000000         0.000000         0.000000         0.000000         0.000000         0.000000         0.000000         0.000000       -0.1327154E-02
    4  9.500    FIX      11.00000       -0.2356194E-02     0.000000         0.000000         0.000000         0.000000         0.000000         0.000000         0.000000         0.000000         0.000000       -0.2356194E-02
 
TUBE  B  E  FLOW          Q [M^3/SEC]     DIAM.[M]        LEN.[M]        RE         RESIDENCE TIME [S]
    WARNING! TUBE    1 ACTIVE BUT NO FLOW
   1   1   2   LAMI.         0.00000        1.00000       10.00000        0.00000        0.00000
    WARNING! TUBE    2 ACTIVE BUT NO FLOW
   2   2   3   LAMI.         0.00000        1.00000       10.00000        0.00000        0.00000
    WARNING! TUBE    3 ACTIVE BUT NO FLOW
   3   3   4   LAMI.         0.00000        1.00000       10.00000        0.00000        0.00000
 

    BUDGET OF THE PIPE SYSTEM OF TIMESTEP    3 IN STRESS PERIOD    1
------------------------------------------------------------------------

  TOTAL SIMULATION TIME   30.0000000000000      S
 
        CUMULATIVE VALUES (L**3)        RATES THIS TIME STEP (L**3/T)

            IN:                               IN:
     CONSTANT HEAD =   0.0000000          CONSTANT HEAD =   0.0000000    
   MATRIX EXCHANGE =  0.15872308        MATRIX EXCHANGE =  0.52907693E-02
     PIPE RECHARGE =   0.0000000          PIPE RECHARGE =   0.0000000    
       PFP STORAGE =   0.0000000            PFP STORAGE =   0.0000000    

     CUMULATIVE IN =  0.15872308               TOTAL IN =  0.52907693E-02

           OUT:                               OUT:
     CONSTANT HEAD =  0.15872308          CONSTANT HEAD =  0.52907693E-02
   MATRIX EXCHANGE =   0.0000000        MATRIX EXCHANGE =   0.0000000    
     PIPE RECHARGE =   0.0000000          PIPE RECHARGE =   0.0000000    
       PFP STORAGE =   0.0000000            PFP STORAGE =   0.0000000    

    CUMULATIVE OUT =  0.15872308              TOTAL OUT =  0.52907693E-02

          IN - OUT =   0.0000000               IN - OUT =   0.0000000    
     PERCENT ERROR =  0.00                PERCENT ERROR =  0.00


 
 ------------------------NODE WATER BUDGET-----------------------
  STRESS PERIOD           1  TIME STEP           3
 TOTAL SIMULATION TIME   30.0000000000000     
 
 FLOW TO THE NODE IN M^3/S
 
 NODE     FIXED HEAD     RECHARGE        QWELL  MATRIX EXCH      STORAGE      TUBE_IN     TUBE_OUT         CADS     FHLQ(LQ)       CAUCHY   CAUCHY(LQ)          QLH     IN - OUT
    1   -0.78540E-03   0.0000       0.0000      0.78540E-03   0.0000       0.0000       0.0000       0.0000       0.0000       0.0000       0.0000       0.0000       0.0000    
    2   -0.82202E-03   0.0000       0.0000      0.82202E-03   0.0000       0.0000       0.0000       0.0000       0.0000       0.0000       0.0000       0.0000       0.0000    
    3   -0.13272E-02   0.0000       0.0000      0.13272E-02   0.0000       0.0000       0.0000       0.0000       0.0000       0.0000       0.0000       0.0000       0.0000    
    4   -0.23562E-02   0.0000       0.0000      0.23562E-02   0.0000       0.0000       0.0000       0.0000       0.0000       0.0000       0.0000       0.0000       0.0000    
     1 CALLS TO PCG ROUTINE FOR TIME STEP   3 IN STRESS PERIOD    1
     1 TOTAL ITERATIONS
 
 SOLVING FOR HEAD 
  LAMINAR PRECALCULATION
MODFLOW ITER.#  NEWTON-RAPHSON ITER.#   MAXIMUM NODE HEAD CHANGE
         1                   1                  0.0000000000


Solver Convergence Information:
                              HClose:  1.7398225E-9
                              RClose:  1.5214774E-12
                           L2-RClose:  1.7418471E-12
                         Rel-Vol-Err:  0.0
 
  LAMINAR PRECALCULATION
MODFLOW ITER.#  NEWTON-RAPHSON ITER.#   MAXIMUM NODE HEAD CHANGE
         1                   1                  0.0000000000

 NO OUTPUT CONTROL FOR STRESS PERIOD      1   TIME STEP     4
 
 
 CFPM1 CRITERION OF CONVERGENCE:     0.1000000E-05
 CFPM1 MAXIMUM NUMBER OF ITERATIONS:   100
 
 
 CFPM1 RESULTS +++++++++++++++++++++++++++++++++++++++++++++++++++++++
 
 STRESS PERIOD/TIME STEP           1           4
 
NUMBER OF NEWTON RHAPSON ITERATIONS:     1
 
 ------- RESULTS OF FLOW CALCULATION -------
 
NODE#  NODE HEAD[M]   MATRIX HEAD [M] EXCHANGE [M^3/S]      CAD STORAGE    CADS RECHARGE         PFPSFLOW  DIRECT RECHARGE            QWELL             FHLQ           CAUCHY        CAUCHY LQ              QLH             QFIX
    1  9.500    FIX      10.00000       -0.7853982E-03     0.000000         0.000000         0.000000         0.000000         0.000000         0.000000         0.000000         0.000000         0.000000       -0.7853982E-03
    2  9.500    FIX      9.761658       -0.8220224E-03     0.000000         0.000000         0.000000         0.000000         0.000000         0.000000         0.000000         0.000000         0.000000       -0.8220224E-03
    3  9.500    FIX      9.922446       -0.1327154E-02     0.000000         0.000000         0.000000         0.000000         0.000000         0.000000         0.000000         0.000000         0.000000       -0.1327154E-02
    4  9.500    FIX      11.00000       -0.2356194E-02     0.000000         0.000000         0.000000         0.000000         0.000000         0.000000         0.000000         0.000000         0.000000       -0.2356194E-02
 
TUBE  B  E  FLOW          Q [M^3/SEC]     DIAM.[M]        LEN.[M]        RE         RESIDENCE TIME [S]
    WARNING! TUBE    1 ACTIVE BUT NO FLOW
   1   1   2   LAMI.         0.00000        1.00000       10.00000        0.00000        0.00000
    WARNING! TUBE    2 ACTIVE BUT NO FLOW
   2   2   3   LAMI.         0.00000        1.00000       10.00000        0.00000        0.00000
    WARNING! TUBE    3 ACTIVE BUT NO FLOW
   3   3   4   LAMI.         0.00000        1.00000       10.00000        0.00000        0.00000
 

    BUDGET OF THE PIPE SYSTEM OF TIMESTEP    4 IN STRESS PERIOD    1
------------------------------------------------------------------------

  TOTAL SIMULATION TIME   40.0000000000000      S
 
        CUMULATIVE VALUES (L**3)        RATES THIS TIME STEP (L**3/T)

            IN:                               IN:
     CONSTANT HEAD =   0.0000000          CONSTANT HEAD =   0.0000000    
   MATRIX EXCHANGE =  0.21163077        MATRIX EXCHANGE =  0.52907693E-02
     PIPE RECHARGE =   0.0000000          PIPE RECHARGE =   0.0000000    
       PFP STORAGE =   0.0000000            PFP STORAGE =   0.0000000    

     CUMULATIVE IN =  0.21163077               TOTAL IN =  0.52907693E-02

           OUT:                               OUT:
     CONSTANT HEAD =  0.21163077          CONSTANT HEAD =  0.52907693E-02
   MATRIX EXCHANGE =   0.0000000        MATRIX EXCHANGE =   0.0000000    
     PIPE RECHARGE =   0.0000000          PIPE RECHARGE =   0.0000000    
       PFP STORAGE =   0.0000000            PFP STORAGE =   0.0000000    

    CUMULATIVE OUT =  0.21163077              TOTAL OUT =  0.52907693E-02

          IN - OUT =   0.0000000               IN - OUT =   0.0000000    
     PERCENT ERROR =  0.00                PERCENT ERROR =  0.00


 
 ------------------------NODE WATER BUDGET-----------------------
  STRESS PERIOD           1  TIME STEP           4
 TOTAL SIMULATION TIME   40.0000000000000     
 
 FLOW TO THE NODE IN M^3/S
 
 NODE     FIXED HEAD     RECHARGE        QWELL  MATRIX EXCH      STORAGE      TUBE_IN     TUBE_OUT         CADS     FHLQ(LQ)       CAUCHY   CAUCHY(LQ)          QLH     IN - OUT
    1   -0.78540E-03   0.0000       0.0000      0.78540E-03   0.0000       0.0000       0.0000       0.0000       0.0000       0.0000       0.0000       0.0000       0.0000    
    2   -0.82202E-03   0.0000       0.0000      0.82202E-03   0.0000       0.0000       0.0000       0.0000       0.0000       0.0000       0.0000       0.0000       0.0000    
    3   -0.13272E-02   0.0000       0.0000      0.13272E-02   0.0000       0.0000       0.0000       0.0000       0.0000       0.0000       0.0000       0.0000       0.0000    
    4   -0.23562E-02   0.0000       0.0000      0.23562E-02   0.0000       0.0000       0.0000       0.0000       0.0000       0.0000       0.0000       0.0000       0.0000    
     1 CALLS TO PCG ROUTINE FOR TIME STEP   4 IN STRESS PERIOD    1
     1 TOTAL ITERATIONS
 
 SOLVING FOR HEAD 
  LAMINAR PRECALCULATION
MODFLOW ITER.#  NEWTON-RAPHSON ITER.#   MAXIMUM NODE HEAD CHANGE
         1                   1                  0.0000000000


Solver Convergence Information:
                              HClose:  3.6831693E-10
                              RClose:  2.3451380E-13
                           L2-RClose:  3.2965921E-13
                         Rel-Vol-Err:  0.0
 
  LAMINAR PRECALCULATION
MODFLOW ITER.#  NEWTON-RAPHSON ITER.#   MAXIMUM NODE HEAD CHANGE
         1                   1                  0.0000000000

 NO OUTPUT CONTROL FOR STRESS PERIOD      1   TIME STEP     5
 
 
 CFPM1 CRITERION OF CONVERGENCE:     0.1000000E-05
 CFPM1 MAXIMUM NUMBER OF ITERATIONS:   100
 
 
 CFPM1 RESULTS +++++++++++++++++++++++++++++++++++++++++++++++++++++++
 
 STRESS PERIOD/TIME STEP           1           5
 
NUMBER OF NEWTON RHAPSON ITERATIONS:     1
 
 ------- RESULTS OF FLOW CALCULATION -------
 
NODE#  NODE HEAD[M]   MATRIX HEAD [M] EXCHANGE [M^3/S]      CAD STORAGE    CADS RECHARGE         PFPSFLOW  DIRECT RECHARGE            QWELL             FHLQ           CAUCHY        CAUCHY LQ              QLH             QFIX
    1  9.500    FIX      10.00000       -0.7853982E-03     0.000000         0.000000         0.000000         0.000000         0.000000         0.000000         0.000000         0.000000         0.000000       -0.7853982E-03
    2  9.500    FIX      9.761658       -0.8220224E-03     0.000000         0.000000         0.000000         0.000000         0.000000         0.000000         0.000000         0.000000         0.000000       -0.8220224E-03
    3  9.500    FIX      9.922446       -0.1327154E-02     0.000000         0.000000         0.000000         0.000000         0.000000         0.000000         0.000000         0.000000         0.000000       -0.1327154E-02
    4  9.500    FIX      11.00000       -0.2356194E-02     0.000000         0.000000         0.000000         0.000000         0.000000         0.000000         0.000000         0.000000         0.000000       -0.2356194E-02
 
TUBE  B  E  FLOW          Q [M^3/SEC]     DIAM.[M]        LEN.[M]        RE         RESIDENCE TIME [S]
    WARNING! TUBE    1 ACTIVE BUT NO FLOW
   1   1   2   LAMI.         0.00000        1.00000       10.00000        0.00000        0.00000
    WARNING! TUBE    2 ACTIVE BUT NO FLOW
   2   2   3   LAMI.         0.00000        1.00000       10.00000        0.00000        0.00000
    WARNING! TUBE    3 ACTIVE BUT NO FLOW
   3   3   4   LAMI.         0.00000        1.00000       10.00000        0.00000        0.00000
 

    BUDGET OF THE PIPE SYSTEM OF TIMESTEP    5 IN STRESS PERIOD    1
------------------------------------------------------------------------

  TOTAL SIMULATION TIME   50.0000000000000      S
 
        CUMULATIVE VALUES (L**3)        RATES THIS TIME STEP (L**3/T)

            IN:                               IN:
     CONSTANT HEAD =   0.0000000          CONSTANT HEAD =   0.0000000    
   MATRIX EXCHANGE =  0.26453847        MATRIX EXCHANGE =  0.52907693E-02
     PIPE RECHARGE =   0.0000000          PIPE RECHARGE =   0.0000000    
       PFP STORAGE =   0.0000000            PFP STORAGE =   0.0000000    

     CUMULATIVE IN =  0.26453847               TOTAL IN =  0.52907693E-02

           OUT:                               OUT:
     CONSTANT HEAD =  0.26453847          CONSTANT HEAD =  0.52907693E-02
   MATRIX EXCHANGE =   0.0000000        MATRIX EXCHANGE =   0.0000000    
     PIPE RECHARGE =   0.0000000          PIPE RECHARGE =   0.0000000    
       PFP STORAGE =   0.0000000            PFP STORAGE =   0.0000000    

    CUMULATIVE OUT =  0.26453847              TOTAL OUT =  0.52907693E-02

          IN - OUT =   0.0000000               IN - OUT =   0.0000000    
     PERCENT ERROR =  0.00                PERCENT ERROR =  0.00


 
 ------------------------NODE WATER BUDGET-----------------------
  STRESS PERIOD           1  TIME STEP           5
 TOTAL SIMULATION TIME   50.0000000000000     
 
 FLOW TO THE NODE IN M^3/S
 
 NODE     FIXED HEAD     RECHARGE        QWELL  MATRIX EXCH      STORAGE      TUBE_IN     TUBE_OUT         CADS     FHLQ(LQ)       CAUCHY   CAUCHY(LQ)          QLH     IN - OUT
    1   -0.78540E-03   0.0000       0.0000      0.78540E-03   0.0000       0.0000       0.0000       0.0000       0.0000       0.0000       0.0000       0.0000       0.0000    
    2   -0.82202E-03   0.0000       0.0000      0.82202E-03   0.0000       0.0000       0.0000       0.0000       0.0000       0.0000       0.0000       0.0000       0.0000    
    3   -0.13272E-02   0.0000       0.0000      0.13272E-02   0.0000       0.0000       0.0000       0.0000       0.0000       0.0000       0.0000       0.0000       0.0000    
    4   -0.23562E-02   0.0000       0.0000      0.23562E-02   0.0000       0.0000       0.0000       0.0000       0.0000       0.0000       0.0000       0.0000       0.0000    
     1 CALLS TO PCG ROUTINE FOR TIME STEP   5 IN STRESS PERIOD    1
     1 TOTAL ITERATIONS

 MAXIMUM HEAD CHANGE FOR EACH ITERATION (1 INDICATES THE FIRST INNER ITERATION):

    HEAD CHANGE    HEAD CHANGE    HEAD CHANGE    HEAD CHANGE    HEAD CHANGE 
   LAYER,ROW,COL  LAYER,ROW,COL  LAYER,ROW,COL  LAYER,ROW,COL  LAYER,ROW,COL
 ---------------------------------------------------------------------------
  1  0.3683E-09
   (  1,  2,  2)

 MAXIMUM RESIDUAL FOR EACH ITERATION (1 INDICATES THE FIRST INNER ITERATION):

    RESIDUAL       RESIDUAL       RESIDUAL       RESIDUAL       RESIDUAL    
   LAYER,ROW,COL  LAYER,ROW,COL  LAYER,ROW,COL  LAYER,ROW,COL  LAYER,ROW,COL
 ---------------------------------------------------------------------------
  1  0.2345E-12
   (  1,  2,  3)


 
 SOLVING FOR HEAD 
  LAMINAR PRECALCULATION
MODFLOW ITER.#  NEWTON-RAPHSON ITER.#   MAXIMUM NODE HEAD CHANGE
         1                   1                  0.0000000000


Solver Convergence Information:
                              HClose:  1.0592238E-10
                              RClose:  9.7276354E-14
                           L2-RClose:  1.1050847E-13
                         Rel-Vol-Err:  0.0
 
  LAMINAR PRECALCULATION
MODFLOW ITER.#  NEWTON-RAPHSON ITER.#   MAXIMUM NODE HEAD CHANGE
         1                   1                  0.0000000000

 NO OUTPUT CONTROL FOR STRESS PERIOD      1   TIME STEP     6
 
 
 CFPM1 CRITERION OF CONVERGENCE:     0.1000000E-05
 CFPM1 MAXIMUM NUMBER OF ITERATIONS:   100
 
 
 CFPM1 RESULTS +++++++++++++++++++++++++++++++++++++++++++++++++++++++
 
 STRESS PERIOD/TIME STEP           1           6
 
NUMBER OF NEWTON RHAPSON ITERATIONS:     1
 
 ------- RESULTS OF FLOW CALCULATION -------
 
NODE#  NODE HEAD[M]   MATRIX HEAD [M] EXCHANGE [M^3/S]      CAD STORAGE    CADS RECHARGE         PFPSFLOW  DIRECT RECHARGE            QWELL             FHLQ           CAUCHY        CAUCHY LQ              QLH             QFIX
    1  9.500    FIX      10.00000       -0.7853982E-03     0.000000         0.000000         0.000000         0.000000         0.000000         0.000000         0.000000         0.000000         0.000000       -0.7853982E-03
    2  9.500    FIX      9.761658       -0.8220224E-03     0.000000         0.000000         0.000000         0.000000         0.000000         0.000000         0.000000         0.000000         0.000000       -0.8220224E-03
    3  9.500    FIX      9.922446       -0.1327154E-02     0.000000         0.000000         0.000000         0.000000         0.000000         0.000000         0.000000         0.000000         0.000000       -0.1327154E-02
    4  9.500    FIX      11.00000       -0.2356194E-02     0.000000         0.000000         0.000000         0.000000         0.000000         0.000000         0.000000         0.000000         0.000000       -0.2356194E-02
 
TUBE  B  E  FLOW          Q [M^3/SEC]     DIAM.[M]        LEN.[M]        RE         RESIDENCE TIME [S]
    WARNING! TUBE    1 ACTIVE BUT NO FLOW
   1   1   2   LAMI.         0.00000        1.00000       10.00000        0.00000        0.00000
    WARNING! TUBE    2 ACTIVE BUT NO FLOW
   2   2   3   LAMI.         0.00000        1.00000       10.00000        0.00000        0.00000
    WARNING! TUBE    3 ACTIVE BUT NO FLOW
   3   3   4   LAMI.         0.00000        1.00000       10.00000        0.00000        0.00000
 

    BUDGET OF THE PIPE SYSTEM OF TIMESTEP    6 IN STRESS PERIOD    1
------------------------------------------------------------------------

  TOTAL SIMULATION TIME   60.0000000000000      S
 
        CUMULATIVE VALUES (L**3)        RATES THIS TIME STEP (L**3/T)

            IN:                               IN:
     CONSTANT HEAD =   0.0000000          CONSTANT HEAD =   0.0000000    
   MATRIX EXCHANGE =  0.31744616        MATRIX EXCHANGE =  0.52907693E-02
     PIPE RECHARGE =   0.0000000          PIPE RECHARGE =   0.0000000    
       PFP STORAGE =   0.0000000            PFP STORAGE =   0.0000000    

     CUMULATIVE IN =  0.31744616               TOTAL IN =  0.52907693E-02

           OUT:                               OUT:
     CONSTANT HEAD =  0.31744616          CONSTANT HEAD =  0.52907693E-02
   MATRIX EXCHANGE =   0.0000000        MATRIX EXCHANGE =   0.0000000    
     PIPE RECHARGE =   0.0000000          PIPE RECHARGE =   0.0000000    
       PFP STORAGE =   0.0000000            PFP STORAGE =   0.0000000    

    CUMULATIVE OUT =  0.31744616              TOTAL OUT =  0.52907693E-02

          IN - OUT =   0.0000000               IN - OUT =   0.0000000    
     PERCENT ERROR =  0.00                PERCENT ERROR =  0.00


 
 ------------------------NODE WATER BUDGET-----------------------
  STRESS PERIOD           1  TIME STEP           6
 TOTAL SIMULATION TIME   60.0000000000000     
 
 FLOW TO THE NODE IN M^3/S
 
 NODE     FIXED HEAD     RECHARGE        QWELL  MATRIX EXCH      STORAGE      TUBE_IN     TUBE_OUT         CADS     FHLQ(LQ)       CAUCHY   CAUCHY(LQ)          QLH     IN - OUT
    1   -0.78540E-03   0.0000       0.0000      0.78540E-03   0.0000       0.0000       0.0000       0.0000       0.0000       0.0000       0.0000       0.0000       0.0000    
    2   -0.82202E-03   0.0000       0.0000      0.82202E-03   0.0000       0.0000       0.0000       0.0000       0.0000       0.0000       0.0000       0.0000       0.0000    
    3   -0.13272E-02   0.0000       0.0000      0.13272E-02   0.0000       0.0000       0.0000       0.0000       0.0000       0.0000       0.0000       0.0000       0.0000    
    4   -0.23562E-02   0.0000       0.0000      0.23562E-02   0.0000       0.0000       0.0000       0.0000       0.0000       0.0000       0.0000       0.0000       0.0000    
     1 CALLS TO PCG ROUTINE FOR TIME STEP   6 IN STRESS PERIOD    1
     1 TOTAL ITERATIONS
 
 SOLVING FOR HEAD 
  LAMINAR PRECALCULATION
MODFLOW ITER.#  NEWTON-RAPHSON ITER.#   MAXIMUM NODE HEAD CHANGE
         1                   1                  0.0000000000


Solver Convergence Information:
                              HClose:  2.3959501E-11
                              RClose:  1.6105173E-14
                           L2-RClose:  2.1821607E-14
                         Rel-Vol-Err:  0.0
 
  LAMINAR PRECALCULATION
MODFLOW ITER.#  NEWTON-RAPHSON ITER.#   MAXIMUM NODE HEAD CHANGE
         1                   1                  0.0000000000

 NO OUTPUT CONTROL FOR STRESS PERIOD      1   TIME STEP     7
 
 
 CFPM1 CRITERION OF CONVERGENCE:     0.1000000E-05
 CFPM1 MAXIMUM NUMBER OF ITERATIONS:   100
 
 
 CFPM1 RESULTS +++++++++++++++++++++++++++++++++++++++++++++++++++++++
 
 STRESS PERIOD/TIME STEP           1           7
 
NUMBER OF NEWTON RHAPSON ITERATIONS:     1
 
 ------- RESULTS OF FLOW CALCULATION -------
 
NODE#  NODE HEAD[M]   MATRIX HEAD [M] EXCHANGE [M^3/S]      CAD STORAGE    CADS RECHARGE         PFPSFLOW  DIRECT RECHARGE            QWELL             FHLQ           CAUCHY        CAUCHY LQ              QLH             QFIX
    1  9.500    FIX      10.00000       -0.7853982E-03     0.000000         0.000000         0.000000         0.000000         0.000000         0.000000         0.000000         0.000000         0.000000       -0.7853982E-03
    2  9.500    FIX      9.761658       -0.8220224E-03     0.000000         0.000000         0.000000         0.000000         0.000000         0.000000         0.000000         0.000000         0.000000       -0.8220224E-03
    3  9.500    FIX      9.922446       -0.1327154E-02     0.000000         0.000000         0.000000         0.000000         0.000000         0.000000         0.000000         0.000000         0.000000       -0.1327154E-02
    4  9.500    FIX      11.00000       -0.2356194E-02     0.000000         0.000000         0.000000         0.000000         0.000000         0.000000         0.000000         0.000000         0.000000       -0.2356194E-02
 
TUBE  B  E  FLOW          Q [M^3/SEC]     DIAM.[M]        LEN.[M]        RE         RESIDENCE TIME [S]
    WARNING! TUBE    1 ACTIVE BUT NO FLOW
   1   1   2   LAMI.         0.00000        1.00000       10.00000        0.00000        0.00000
    WARNING! TUBE    2 ACTIVE BUT NO FLOW
   2   2   3   LAMI.         0.00000        1.00000       10.00000        0.00000        0.00000
    WARNING! TUBE    3 ACTIVE BUT NO FLOW
   3   3   4   LAMI.         0.00000        1.00000       10.00000        0.00000        0.00000
 

    BUDGET OF THE PIPE SYSTEM OF TIMESTEP    7 IN STRESS PERIOD    1
------------------------------------------------------------------------

  TOTAL SIMULATION TIME   70.0000000000000      S
 
        CUMULATIVE VALUES (L**3)        RATES THIS TIME STEP (L**3/T)

            IN:                               IN:
     CONSTANT HEAD =   0.0000000          CONSTANT HEAD =   0.0000000    
   MATRIX EXCHANGE =  0.37035385        MATRIX EXCHANGE =  0.52907693E-02
     PIPE RECHARGE =   0.0000000          PIPE RECHARGE =   0.0000000    
       PFP STORAGE =   0.0000000            PFP STORAGE =   0.0000000    

     CUMULATIVE IN =  0.37035385               TOTAL IN =  0.52907693E-02

           OUT:                               OUT:
     CONSTANT HEAD =  0.37035385          CONSTANT HEAD =  0.52907693E-02
   MATRIX EXCHANGE =   0.0000000        MATRIX EXCHANGE =   0.0000000    
     PIPE RECHARGE =   0.0000000          PIPE RECHARGE =   0.0000000    
       PFP STORAGE =   0.0000000            PFP STORAGE =   0.0000000    

    CUMULATIVE OUT =  0.37035385              TOTAL OUT =  0.52907693E-02

          IN - OUT =   0.0000000               IN - OUT =   0.0000000    
     PERCENT ERROR =  0.00                PERCENT ERROR =  0.00


 
 ------------------------NODE WATER BUDGET-----------------------
  STRESS PERIOD           1  TIME STEP           7
 TOTAL SIMULATION TIME   70.0000000000000     
 
 FLOW TO THE NODE IN M^3/S
 
 NODE     FIXED HEAD     RECHARGE        QWELL  MATRIX EXCH      STORAGE      TUBE_IN     TUBE_OUT         CADS     FHLQ(LQ)       CAUCHY   CAUCHY(LQ)          QLH     IN - OUT
    1   -0.78540E-03   0.0000       0.0000      0.78540E-03   0.0000       0.0000       0.0000       0.0000       0.0000       0.0000       0.0000       0.0000       0.0000    
    2   -0.82202E-03   0.0000       0.0000      0.82202E-03   0.0000       0.0000       0.0000       0.0000       0.0000       0.0000       0.0000       0.0000       0.0000    
    3   -0.13272E-02   0.0000       0.0000      0.13272E-02   0.0000       0.0000       0.0000       0.0000       0.0000       0.0000       0.0000       0.0000       0.0000    
    4   -0.23562E-02   0.0000       0.0000      0.23562E-02   0.0000       0.0000       0.0000       0.0000       0.0000       0.0000       0.0000       0.0000       0.0000    
     1 CALLS TO PCG ROUTINE FOR TIME STEP   7 IN STRESS PERIOD    1
     1 TOTAL ITERATIONS
 
 SOLVING FOR HEAD 
  LAMINAR PRECALCULATION
MODFLOW ITER.#  NEWTON-RAPHSON ITER.#   MAXIMUM NODE HEAD CHANGE
         1                   1                  0.0000000000


Solver Convergence Information:
                              HClose:  6.7412742E-12
                              RClose:  6.3768435E-15
                           L2-RClose:  7.2802029E-15
                         Rel-Vol-Err:  0.0
 
  LAMINAR PRECALCULATION
MODFLOW ITER.#  NEWTON-RAPHSON ITER.#   MAXIMUM NODE HEAD CHANGE
         1                   1                  0.0000000000

 NO OUTPUT CONTROL FOR STRESS PERIOD      1   TIME STEP     8
 
 
 CFPM1 CRITERION OF CONVERGENCE:     0.1000000E-05
 CFPM1 MAXIMUM NUMBER OF ITERATIONS:   100
 
 
 CFPM1 RESULTS +++++++++++++++++++++++++++++++++++++++++++++++++++++++
 
 STRESS PERIOD/TIME STEP           1           8
 
NUMBER OF NEWTON RHAPSON ITERATIONS:     1
 
 ------- RESULTS OF FLOW CALCULATION -------
 
NODE#  NODE HEAD[M]   MATRIX HEAD [M] EXCHANGE [M^3/S]      CAD STORAGE    CADS RECHARGE         PFPSFLOW  DIRECT RECHARGE            QWELL             FHLQ           CAUCHY        CAUCHY LQ              QLH             QFIX
    1  9.500    FIX      10.00000       -0.7853982E-03     0.000000         0.000000         0.000000         0.000000         0.000000         0.000000         0.000000         0.000000         0.000000       -0.7853982E-03
    2  9.500    FIX      9.761658       -0.8220224E-03     0.000000         0.000000         0.000000         0.000000         0.000000         0.000000         0.000000         0.000000         0.000000       -0.8220224E-03
    3  9.500    FIX      9.922446       -0.1327154E-02     0.000000         0.000000         0.000000         0.000000         0.000000         0.000000         0.000000         0.000000         0.000000       -0.1327154E-02
    4  9.500    FIX      11.00000       -0.2356194E-02     0.000000         0.000000         0.000000         0.000000         0.000000         0.000000         0.000000         0.000000         0.000000       -0.2356194E-02
 
TUBE  B  E  FLOW          Q [M^3/SEC]     DIAM.[M]        LEN.[M]        RE         RESIDENCE TIME [S]
    WARNING! TUBE    1 ACTIVE BUT NO FLOW
   1   1   2   LAMI.         0.00000        1.00000       10.00000        0.00000        0.00000
    WARNING! TUBE    2 ACTIVE BUT NO FLOW
   2   2   3   LAMI.         0.00000        1.00000       10.00000        0.00000        0.00000
    WARNING! TUBE    3 ACTIVE BUT NO FLOW
   3   3   4   LAMI.         0.00000        1.00000       10.00000        0.00000        0.00000
 

    BUDGET OF THE PIPE SYSTEM OF TIMESTEP    8 IN STRESS PERIOD    1
------------------------------------------------------------------------

  TOTAL SIMULATION TIME   80.0000000000000      S
 
        CUMULATIVE VALUES (L**3)        RATES THIS TIME STEP (L**3/T)

            IN:                               IN:
     CONSTANT HEAD =   0.0000000          CONSTANT HEAD =   0.0000000    
   MATRIX EXCHANGE =  0.42326154        MATRIX EXCHANGE =  0.52907693E-02
     PIPE RECHARGE =   0.0000000          PIPE RECHARGE =   0.0000000    
       PFP STORAGE =   0.0000000            PFP STORAGE =   0.0000000    

     CUMULATIVE IN =  0.42326154               TOTAL IN =  0.52907693E-02

           OUT:                               OUT:
     CONSTANT HEAD =  0.42326154          CONSTANT HEAD =  0.52907693E-02
   MATRIX EXCHANGE =   0.0000000        MATRIX EXCHANGE =   0.0000000    
     PIPE RECHARGE =   0.0000000          PIPE RECHARGE =   0.0000000    
       PFP STORAGE =   0.0000000            PFP STORAGE =   0.0000000    

    CUMULATIVE OUT =  0.42326154              TOTAL OUT =  0.52907693E-02

          IN - OUT =   0.0000000               IN - OUT =   0.0000000    
     PERCENT ERROR =  0.00                PERCENT ERROR =  0.00


 
 ------------------------NODE WATER BUDGET-----------------------
  STRESS PERIOD           1  TIME STEP           8
 TOTAL SIMULATION TIME   80.0000000000000     
 
 FLOW TO THE NODE IN M^3/S
 
 NODE     FIXED HEAD     RECHARGE        QWELL  MATRIX EXCH      STORAGE      TUBE_IN     TUBE_OUT         CADS     FHLQ(LQ)       CAUCHY   CAUCHY(LQ)          QLH     IN - OUT
    1   -0.78540E-03   0.0000       0.0000      0.78540E-03   0.0000       0.0000       0.0000       0.0000       0.0000       0.0000       0.0000       0.0000       0.0000    
    2   -0.82202E-03   0.0000       0.0000      0.82202E-03   0.0000       0.0000       0.0000       0.0000       0.0000       0.0000       0.0000       0.0000       0.0000    
    3   -0.13272E-02   0.0000       0.0000      0.13272E-02   0.0000       0.0000       0.0000       0.0000       0.0000       0.0000       0.0000       0.0000       0.0000    
    4   -0.23562E-02   0.0000       0.0000      0.23562E-02   0.0000       0.0000       0.0000       0.0000       0.0000       0.0000       0.0000       0.0000       0.0000    
     1 CALLS TO PCG ROUTINE FOR TIME STEP   8 IN STRESS PERIOD    1
     1 TOTAL ITERATIONS
 
 SOLVING FOR HEAD 
  LAMINAR PRECALCULATION
MODFLOW ITER.#  NEWTON-RAPHSON ITER.#   MAXIMUM NODE HEAD CHANGE
         1                   1                  0.0000000000


Solver Convergence Information:
                              HClose:  1.5951684E-12
                              RClose:  1.1171619E-15
                           L2-RClose:  1.4829786E-15
                         Rel-Vol-Err:  0.0
 
  LAMINAR PRECALCULATION
MODFLOW ITER.#  NEWTON-RAPHSON ITER.#   MAXIMUM NODE HEAD CHANGE
         1                   1                  0.0000000000

 NO OUTPUT CONTROL FOR STRESS PERIOD      1   TIME STEP     9
 
 
 CFPM1 CRITERION OF CONVERGENCE:     0.1000000E-05
 CFPM1 MAXIMUM NUMBER OF ITERATIONS:   100
 
 
 CFPM1 RESULTS +++++++++++++++++++++++++++++++++++++++++++++++++++++++
 
 STRESS PERIOD/TIME STEP           1           9
 
NUMBER OF NEWTON RHAPSON ITERATIONS:     1
 
 ------- RESULTS OF FLOW CALCULATION -------
 
NODE#  NODE HEAD[M]   MATRIX HEAD [M] EXCHANGE [M^3/S]      CAD STORAGE    CADS RECHARGE         PFPSFLOW  DIRECT RECHARGE            QWELL             FHLQ           CAUCHY        CAUCHY LQ              QLH             QFIX
    1  9.500    FIX      10.00000       -0.7853982E-03     0.000000         0.000000         0.000000         0.000000         0.000000         0.000000         0.000000         0.000000         0.000000       -0.7853982E-03
    2  9.500    FIX      9.761658       -0.8220224E-03     0.000000         0.000000         0.000000         0.000000         0.000000         0.000000         0.000000         0.000000         0.000000       -0.8220224E-03
    3  9.500    FIX      9.922446       -0.1327154E-02     0.000000         0.000000         0.000000         0.000000         0.000000         0.000000         0.000000         0.000000         0.000000       -0.1327154E-02
    4  9.500    FIX      11.00000       -0.2356194E-02     0.000000         0.000000         0.000000         0.000000         0.000000         0.000000         0.000000         0.000000         0.000000       -0.2356194E-02
 
TUBE  B  E  FLOW          Q [M^3/SEC]     DIAM.[M]        LEN.[M]        RE         RESIDENCE TIME [S]
    WARNING! TUBE    1 ACTIVE BUT NO FLOW
   1   1   2   LAMI.         0.00000        1.00000       10.00000        0.00000        0.00000
    WARNING! TUBE    2 ACTIVE BUT NO FLOW
   2   2   3   LAMI.         0.00000        1.00000       10.00000        0.00000        0.00000
    WARNING! TUBE    3 ACTIVE BUT NO FLOW
   3   3   4   LAMI.         0.00000        1.00000       10.00000        0.00000        0.00000
 

    BUDGET OF THE PIPE SYSTEM OF TIMESTEP    9 IN STRESS PERIOD    1
------------------------------------------------------------------------

  TOTAL SIMULATION TIME   90.0000000000000      S
 
        CUMULATIVE VALUES (L**3)        RATES THIS TIME STEP (L**3/T)

            IN:                               IN:
     CONSTANT HEAD =   0.0000000          CONSTANT HEAD =   0.0000000    
   MATRIX EXCHANGE =  0.47616924        MATRIX EXCHANGE =  0.52907693E-02
     PIPE RECHARGE =   0.0000000          PIPE RECHARGE =   0.0000000    
       PFP STORAGE =   0.0000000            PFP STORAGE =   0.0000000    

     CUMULATIVE IN =  0.47616924               TOTAL IN =  0.52907693E-02

           OUT:                               OUT:
     CONSTANT HEAD =  0.47616924          CONSTANT HEAD =  0.52907693E-02
   MATRIX EXCHANGE =   0.0000000        MATRIX EXCHANGE =   0.0000000    
     PIPE RECHARGE =   0.0000000          PIPE RECHARGE =   0.0000000    
       PFP STORAGE =   0.0000000            PFP STORAGE =   0.0000000    

    CUMULATIVE OUT =  0.47616924              TOTAL OUT =  0.52907693E-02

          IN - OUT =   0.0000000               IN - OUT =   0.0000000    
     PERCENT ERROR =  0.00                PERCENT ERROR =  0.00


 
 ------------------------NODE WATER BUDGET-----------------------
  STRESS PERIOD           1  TIME STEP           9
 TOTAL SIMULATION TIME   90.0000000000000     
 
 FLOW TO THE NODE IN M^3/S
 
 NODE     FIXED HEAD     RECHARGE        QWELL  MATRIX EXCH      STORAGE      TUBE_IN     TUBE_OUT         CADS     FHLQ(LQ)       CAUCHY   CAUCHY(LQ)          QLH     IN - OUT
    1   -0.78540E-03   0.0000       0.0000      0.78540E-03   0.0000       0.0000       0.0000       0.0000       0.0000       0.0000       0.0000       0.0000       0.0000    
    2   -0.82202E-03   0.0000       0.0000      0.82202E-03   0.0000       0.0000       0.0000       0.0000       0.0000       0.0000       0.0000       0.0000       0.0000    
    3   -0.13272E-02   0.0000       0.0000      0.13272E-02   0.0000       0.0000       0.0000       0.0000       0.0000       0.0000       0.0000       0.0000       0.0000    
    4   -0.23562E-02   0.0000       0.0000      0.23562E-02   0.0000       0.0000       0.0000       0.0000       0.0000       0.0000       0.0000       0.0000       0.0000    
     1 CALLS TO PCG ROUTINE FOR TIME STEP   9 IN STRESS PERIOD    1
     1 TOTAL ITERATIONS
 
 SOLVING FOR HEAD 
  LAMINAR PRECALCULATION
MODFLOW ITER.#  NEWTON-RAPHSON ITER.#   MAXIMUM NODE HEAD CHANGE
         1                   1                  0.0000000000


Solver Convergence Information:
                              HClose:  4.4053650E-13
                              RClose:  4.2327253E-16
                           L2-RClose:  4.8650567E-16
                         Rel-Vol-Err:  0.0
 
  LAMINAR PRECALCULATION
MODFLOW ITER.#  NEWTON-RAPHSON ITER.#   MAXIMUM NODE HEAD CHANGE
         1                   1                  0.0000000000

 OUTPUT CONTROL FOR STRESS PERIOD      1   TIME STEP    10
    PRINT HEAD FOR ALL LAYERS
    SAVE HEAD FOR ALL LAYERS
    SAVE BUDGET
 UBDSV2 SAVING "   CONSTANT HEAD" ON UNIT 50 AT TIME STEP 10, STRESS PERIOD 1
 UBDSV1 SAVING "FLOW RIGHT FACE " ON UNIT 50 AT TIME STEP 10, STRESS PERIOD 1
 UBDSV1 SAVING "FLOW FRONT FACE " ON UNIT 50 AT TIME STEP 10, STRESS PERIOD 1
 
 
 CFPM1 CRITERION OF CONVERGENCE:     0.1000000E-05
 CFPM1 MAXIMUM NUMBER OF ITERATIONS:   100
 
 
 CFPM1 RESULTS +++++++++++++++++++++++++++++++++++++++++++++++++++++++
 
 STRESS PERIOD/TIME STEP           1          10
 
NUMBER OF NEWTON RHAPSON ITERATIONS:     1
 
 ------- RESULTS OF FLOW CALCULATION -------
 
NODE#  NODE HEAD[M]   MATRIX HEAD [M] EXCHANGE [M^3/S]      CAD STORAGE    CADS RECHARGE         PFPSFLOW  DIRECT RECHARGE            QWELL             FHLQ           CAUCHY        CAUCHY LQ              QLH             QFIX
    1  9.500    FIX      10.00000       -0.7853982E-03     0.000000         0.000000         0.000000         0.000000         0.000000         0.000000         0.000000         0.000000         0.000000       -0.7853982E-03
    2  9.500    FIX      9.761658       -0.8220224E-03     0.000000         0.000000         0.000000         0.000000         0.000000         0.000000         0.000000         0.000000         0.000000       -0.8220224E-03
    3  9.500    FIX      9.922446       -0.1327154E-02     0.000000         0.000000         0.000000         0.000000         0.000000         0.000000         0.000000         0.000000         0.000000       -0.1327154E-02
    4  9.500    FIX      11.00000       -0.2356194E-02     0.000000         0.000000         0.000000         0.000000         0.000000         0.000000         0.000000         0.000000         0.000000       -0.2356194E-02
 
TUBE  B  E  FLOW          Q [M^3/SEC]     DIAM.[M]        LEN.[M]        RE         RESIDENCE TIME [S]
    WARNING! TUBE    1 ACTIVE BUT NO FLOW
   1   1   2   LAMI.         0.00000        1.00000       10.00000        0.00000        0.00000
    WARNING! TUBE    2 ACTIVE BUT NO FLOW
   2   2   3   LAMI.         0.00000        1.00000       10.00000        0.00000        0.00000
    WARNING! TUBE    3 ACTIVE BUT NO FLOW
   3   3   4   LAMI.         0.00000        1.00000       10.00000        0.00000        0.00000
 

    BUDGET OF THE PIPE SYSTEM OF TIMESTEP   10 IN STRESS PERIOD    1
------------------------------------------------------------------------

  TOTAL SIMULATION TIME   100.000000000000      S
 
        CUMULATIVE VALUES (L**3)        RATES THIS TIME STEP (L**3/T)

            IN:                               IN:
     CONSTANT HEAD =   0.0000000          CONSTANT HEAD =   0.0000000    
   MATRIX EXCHANGE =  0.52907693        MATRIX EXCHANGE =  0.52907693E-02
     PIPE RECHARGE =   0.0000000          PIPE RECHARGE =   0.0000000    
       PFP STORAGE =   0.0000000            PFP STORAGE =   0.0000000    

     CUMULATIVE IN =  0.52907693               TOTAL IN =  0.52907693E-02

           OUT:                               OUT:
     CONSTANT HEAD =  0.52907693          CONSTANT HEAD =  0.52907693E-02
   MATRIX EXCHANGE =   0.0000000        MATRIX EXCHANGE =   0.0000000    
     PIPE RECHARGE =   0.0000000          PIPE RECHARGE =   0.0000000    
       PFP STORAGE =   0.0000000            PFP STORAGE =   0.0000000    

    CUMULATIVE OUT =  0.52907693              TOTAL OUT =  0.52907693E-02

          IN - OUT =   0.0000000               IN - OUT =   0.0000000    
     PERCENT ERROR =  0.00                PERCENT ERROR =  0.00


 
 ------------------------NODE WATER BUDGET-----------------------
  STRESS PERIOD           1  TIME STEP          10
 TOTAL SIMULATION TIME   100.000000000000     
 
 FLOW TO THE NODE IN M^3/S
 
 NODE     FIXED HEAD     RECHARGE        QWELL  MATRIX EXCH      STORAGE      TUBE_IN     TUBE_OUT         CADS     FHLQ(LQ)       CAUCHY   CAUCHY(LQ)          QLH     IN - OUT
    1   -0.78540E-03   0.0000       0.0000      0.78540E-03   0.0000       0.0000       0.0000       0.0000       0.0000       0.0000       0.0000       0.0000       0.0000    
    2   -0.82202E-03   0.0000       0.0000      0.82202E-03   0.0000       0.0000       0.0000       0.0000       0.0000       0.0000       0.0000       0.0000       0.0000    
    3   -0.13272E-02   0.0000       0.0000      0.13272E-02   0.0000       0.0000       0.0000       0.0000       0.0000       0.0000       0.0000       0.0000       0.0000    
    4   -0.23562E-02   0.0000       0.0000      0.23562E-02   0.0000       0.0000       0.0000       0.0000       0.0000       0.0000       0.0000       0.0000       0.0000    
     1 CALLS TO PCG ROUTINE FOR TIME STEP  10 IN STRESS PERIOD    1
     1 TOTAL ITERATIONS

 MAXIMUM HEAD CHANGE FOR EACH ITERATION (1 INDICATES THE FIRST INNER ITERATION):

    HEAD CHANGE    HEAD CHANGE    HEAD CHANGE    HEAD CHANGE    HEAD CHANGE 
   LAYER,ROW,COL  LAYER,ROW,COL  LAYER,ROW,COL  LAYER,ROW,COL  LAYER,ROW,COL
 ---------------------------------------------------------------------------
  1 -0.4414E-12
   (  1,  2,  2)

 MAXIMUM RESIDUAL FOR EACH ITERATION (1 INDICATES THE FIRST INNER ITERATION):

    RESIDUAL       RESIDUAL       RESIDUAL       RESIDUAL       RESIDUAL    
   LAYER,ROW,COL  LAYER,ROW,COL  LAYER,ROW,COL  LAYER,ROW,COL  LAYER,ROW,COL
 ---------------------------------------------------------------------------
  1  0.4240E-15
   (  1,  2,  3)


1
              HEAD IN LAYER   1 AT END OF TIME STEP  10 IN STRESS PERIOD    1
  ---------------------------------------------------------------------------

          1         2         3         4         5
 ..................................................
   1    10.       10.       10.       10.       10.    
   2    10.       10.       9.8       10.       10.    
   3    11.       10.       9.9       10.       11.    
   4    11.       11.       11.       11.       11.    

 HEAD WILL BE SAVED ON UNIT   51 AT END OF TIME STEP    10 IN STRESS PERIOD      1



  -------------------------------------------------------------------------------------
  VOLUMETRIC BUDGET FOR ENTIRE MODEL AT END OF TIME STEP   10 IN STRESS PERIOD      1
  -------------------------------------------------------------------------------------

     CUMULATIVE VOLUMES      L**3       RATES FOR THIS TIME STEP      L**3/T
     ------------------                 ------------------------

           IN:                                      IN:
           ---                                      ---
             STORAGE =           0.0000               STORAGE =           0.0000
       CONSTANT HEAD =           0.5468         CONSTANT HEAD =       5.4679E-03
               PIPES =           0.0000                 PIPES =           0.0000

            TOTAL IN =           0.5468              TOTAL IN =       5.4679E-03

          OUT:                                     OUT:
          ----                                     ----
             STORAGE =           0.0000               STORAGE =           0.0000
       CONSTANT HEAD =       1.7714E-02         CONSTANT HEAD =       1.7714E-04
               PIPES =           0.5291                 PIPES =       5.2908E-03

           TOTAL OUT =           0.5468             TOTAL OUT =       5.4679E-03

            IN - OUT =      -1.3271E-09              IN - OUT =      -1.3965E-16

 PERCENT DISCREPANCY =          -0.00     PERCENT DISCREPANCY =          -0.00


          TIME SUMMARY AT END OF TIME STEP    10 IN STRESS PERIOD      1
                    SECONDS     MINUTES      HOURS       DAYS        YEARS
                    -----------------------------------------------------------
   TIME STEP LENGTH  10.000     0.16667     2.77778E-03 1.15741E-04 3.16881E-07
 STRESS PERIOD TIME  100.00      1.6667     2.77778E-02 1.15741E-03 3.16881E-06
         TOTAL TIME  100.00      1.6667     2.77778E-02 1.15741E-03 3.16881E-06
 
1
                            STRESS PERIOD NO.      2, LENGTH =   100.0000    
                            -----------------------------------------------

                              NUMBER OF TIME STEPS =    10

                               MULTIPLIER FOR DELT =     1.000

                            INITIAL TIME STEP SIZE =   10.00000    

READING PCG SOLVER STRESS PERIOD INFORMATION


########################################################################################################################
PCG INPUT FILE STRESS PERIOD CONVERGENCE INFORMATION FAILED READ FOR STRESS PERIOD     2
 REUSING PREVIOUSLY DEFINED CRITERIA FOR REMAINDER OF SIMULATION.
########################################################################################################################
 
 SOLVING FOR HEAD 
  LAMINAR PRECALCULATION
MODFLOW ITER.#  NEWTON-RAPHSON ITER.#   MAXIMUM NODE HEAD CHANGE
         1                   1                  0.0000000000


Solver Convergence Information:
                              HClose:  6.5725203E-14
                              RClose:  3.5527137E-15
                           L2-RClose:  7.1054274E-15
                         Rel-Vol-Err:  0.0
 
  LAMINAR PRECALCULATION
MODFLOW ITER.#  NEWTON-RAPHSON ITER.#   MAXIMUM NODE HEAD CHANGE
         1                   1                  0.0000000000

 NO OUTPUT CONTROL FOR STRESS PERIOD      2   TIME STEP     1
 
 
 CFPM1 CRITERION OF CONVERGENCE:     0.1000000E-05
 CFPM1 MAXIMUM NUMBER OF ITERATIONS:   100
 
 
 CFPM1 RESULTS +++++++++++++++++++++++++++++++++++++++++++++++++++++++
 
 STRESS PERIOD/TIME STEP           2           1
 
NUMBER OF NEWTON RHAPSON ITERATIONS:     1
 
 ------- RESULTS OF FLOW CALCULATION -------
 
NODE#  NODE HEAD[M]   MATRIX HEAD [M] EXCHANGE [M^3/S]      CAD STORAGE    CADS RECHARGE         PFPSFLOW  DIRECT RECHARGE            QWELL             FHLQ           CAUCHY        CAUCHY LQ              QLH             QFIX
    1  9.500    FIX      10.00000       -0.7853982E-03     0.000000         0.000000         0.000000         0.000000         0.000000         0.000000         0.000000         0.000000         0.000000       -0.7853982E-03
    2  9.500    FIX      9.761658       -0.8220224E-03     0.000000         0.000000         0.000000         0.000000         0.000000         0.000000         0.000000         0.000000         0.000000       -0.8220224E-03
    3  9.500    FIX      9.922446       -0.1327154E-02     0.000000         0.000000         0.000000         0.000000         0.000000         0.000000         0.000000         0.000000         0.000000       -0.1327154E-02
    4  9.500    FIX      11.00000       -0.2356194E-02     0.000000         0.000000         0.000000         0.000000         0.000000         0.000000         0.000000         0.000000         0.000000       -0.2356194E-02
 
TUBE  B  E  FLOW          Q [M^3/SEC]     DIAM.[M]        LEN.[M]        RE         RESIDENCE TIME [S]
    WARNING! TUBE    1 ACTIVE BUT NO FLOW
   1   1   2   LAMI.         0.00000        1.00000       10.00000        0.00000        0.00000
    WARNING! TUBE    2 ACTIVE BUT NO FLOW
   2   2   3   LAMI.         0.00000        1.00000       10.00000        0.00000        0.00000
    WARNING! TUBE    3 ACTIVE BUT NO FLOW
   3   3   4   LAMI.         0.00000        1.00000       10.00000        0.00000        0.00000
 

    BUDGET OF THE PIPE SYSTEM OF TIMESTEP    1 IN STRESS PERIOD    2
------------------------------------------------------------------------

  TOTAL SIMULATION TIME   110.000000000000      S
 
        CUMULATIVE VALUES (L**3)        RATES THIS TIME STEP (L**3/T)

            IN:                               IN:
     CONSTANT HEAD =   0.0000000          CONSTANT HEAD =   0.0000000    
   MATRIX EXCHANGE =  0.58198462        MATRIX EXCHANGE =  0.52907693E-02
     PIPE RECHARGE =   0.0000000          PIPE RECHARGE =   0.0000000    
       PFP STORAGE =   0.0000000            PFP STORAGE =   0.0000000    

     CUMULATIVE IN =  0.58198462               TOTAL IN =  0.52907693E-02

           OUT:                               OUT:
     CONSTANT HEAD =  0.58198462          CONSTANT HEAD =  0.52907693E-02
   MATRIX EXCHANGE =   0.0000000        MATRIX EXCHANGE =   0.0000000    
     PIPE RECHARGE =   0.0000000          PIPE RECHARGE =   0.0000000    
       PFP STORAGE =   0.0000000            PFP STORAGE =   0.0000000    

    CUMULATIVE OUT =  0.58198462              TOTAL OUT =  0.52907693E-02

          IN - OUT =   0.0000000               IN - OUT =   0.0000000    
     PERCENT ERROR =  0.00                PERCENT ERROR =  0.00


 
 ------------------------NODE WATER BUDGET-----------------------
  STRESS PERIOD           2  TIME STEP           1
 TOTAL SIMULATION TIME   110.000000000000     
 
 FLOW TO THE NODE IN M^3/S
 
 NODE     FIXED HEAD     RECHARGE        QWELL  MATRIX EXCH      STORAGE      TUBE_IN     TUBE_OUT         CADS     FHLQ(LQ)       CAUCHY   CAUCHY(LQ)          QLH     IN - OUT
    1   -0.78540E-03   0.0000       0.0000      0.78540E-03   0.0000       0.0000       0.0000       0.0000       0.0000       0.0000       0.0000       0.0000       0.0000    
    2   -0.82202E-03   0.0000       0.0000      0.82202E-03   0.0000       0.0000       0.0000       0.0000       0.0000       0.0000       0.0000       0.0000       0.0000    
    3   -0.13272E-02   0.0000       0.0000      0.13272E-02   0.0000       0.0000       0.0000       0.0000       0.0000       0.0000       0.0000       0.0000       0.0000    
    4   -0.23562E-02   0.0000       0.0000      0.23562E-02   0.0000       0.0000       0.0000       0.0000       0.0000       0.0000       0.0000       0.0000       0.0000    


     1 CALLS TO PCG ROUTINE FOR TIME STEP   1 IN STRESS PERIOD    2
     1 TOTAL ITERATIONS
 
 SOLVING FOR HEAD 
  LAMINAR PRECALCULATION
MODFLOW ITER.#  NEWTON-RAPHSON ITER.#   MAXIMUM NODE HEAD CHANGE
         1                   1                  0.0000000000


Solver Convergence Information:
                              HClose:  7.1054274E-15
                              RClose:  3.5527137E-15
                           L2-RClose:  7.1054274E-15
                         Rel-Vol-Err:  0.0
 
  LAMINAR PRECALCULATION
MODFLOW ITER.#  NEWTON-RAPHSON ITER.#   MAXIMUM NODE HEAD CHANGE
         1                   1                  0.0000000000

 NO OUTPUT CONTROL FOR STRESS PERIOD      2   TIME STEP     2
 
 
 CFPM1 CRITERION OF CONVERGENCE:     0.1000000E-05
 CFPM1 MAXIMUM NUMBER OF ITERATIONS:   100
 
 
 CFPM1 RESULTS +++++++++++++++++++++++++++++++++++++++++++++++++++++++
 
 STRESS PERIOD/TIME STEP           2           2
 
NUMBER OF NEWTON RHAPSON ITERATIONS:     1
 
 ------- RESULTS OF FLOW CALCULATION -------
 
NODE#  NODE HEAD[M]   MATRIX HEAD [M] EXCHANGE [M^3/S]      CAD STORAGE    CADS RECHARGE         PFPSFLOW  DIRECT RECHARGE            QWELL             FHLQ           CAUCHY        CAUCHY LQ              QLH             QFIX
    1  9.500    FIX      10.00000       -0.7853982E-03     0.000000         0.000000         0.000000         0.000000         0.000000         0.000000         0.000000         0.000000         0.000000       -0.7853982E-03
    2  9.500    FIX      9.761658       -0.8220224E-03     0.000000         0.000000         0.000000         0.000000         0.000000         0.000000         0.000000         0.000000         0.000000       -0.8220224E-03
    3  9.500    FIX      9.922446       -0.1327154E-02     0.000000         0.000000         0.000000         0.000000         0.000000         0.000000         0.000000         0.000000         0.000000       -0.1327154E-02
    4  9.500    FIX      11.00000       -0.2356194E-02     0.000000         0.000000         0.000000         0.000000         0.000000         0.000000         0.000000         0.000000         0.000000       -0.2356194E-02
 
TUBE  B  E  FLOW          Q [M^3/SEC]     DIAM.[M]        LEN.[M]        RE         RESIDENCE TIME [S]
    WARNING! TUBE    1 ACTIVE BUT NO FLOW
   1   1   2   LAMI.         0.00000        1.00000       10.00000        0.00000        0.00000
    WARNING! TUBE    2 ACTIVE BUT NO FLOW
   2   2   3   LAMI.         0.00000        1.00000       10.00000        0.00000        0.00000
    WARNING! TUBE    3 ACTIVE BUT NO FLOW
   3   3   4   LAMI.         0.00000        1.00000       10.00000        0.00000        0.00000
 

    BUDGET OF THE PIPE SYSTEM OF TIMESTEP    2 IN STRESS PERIOD    2
------------------------------------------------------------------------

  TOTAL SIMULATION TIME   120.000000000000      S
 
        CUMULATIVE VALUES (L**3)        RATES THIS TIME STEP (L**3/T)

            IN:                               IN:
     CONSTANT HEAD =   0.0000000          CONSTANT HEAD =   0.0000000    
   MATRIX EXCHANGE =  0.63489232        MATRIX EXCHANGE =  0.52907693E-02
     PIPE RECHARGE =   0.0000000          PIPE RECHARGE =   0.0000000    
       PFP STORAGE =   0.0000000            PFP STORAGE =   0.0000000    

     CUMULATIVE IN =  0.63489232               TOTAL IN =  0.52907693E-02

           OUT:                               OUT:
     CONSTANT HEAD =  0.63489232          CONSTANT HEAD =  0.52907693E-02
   MATRIX EXCHANGE =   0.0000000        MATRIX EXCHANGE =   0.0000000    
     PIPE RECHARGE =   0.0000000          PIPE RECHARGE =   0.0000000    
       PFP STORAGE =   0.0000000            PFP STORAGE =   0.0000000    

    CUMULATIVE OUT =  0.63489232              TOTAL OUT =  0.52907693E-02

          IN - OUT =   0.0000000               IN - OUT =   0.0000000    
     PERCENT ERROR =  0.00                PERCENT ERROR =  0.00


 
 ------------------------NODE WATER BUDGET-----------------------
  STRESS PERIOD           2  TIME STEP           2
 TOTAL SIMULATION TIME   120.000000000000     
 
 FLOW TO THE NODE IN M^3/S
 
 NODE     FIXED HEAD     RECHARGE        QWELL  MATRIX EXCH      STORAGE      TUBE_IN     TUBE_OUT         CADS     FHLQ(LQ)       CAUCHY   CAUCHY(LQ)          QLH     IN - OUT
    1   -0.78540E-03   0.0000       0.0000      0.78540E-03   0.0000       0.0000       0.0000       0.0000       0.0000       0.0000       0.0000       0.0000       0.0000    
    2   -0.82202E-03   0.0000       0.0000      0.82202E-03   0.0000       0.0000       0.0000       0.0000       0.0000       0.0000       0.0000       0.0000       0.0000    
    3   -0.13272E-02   0.0000       0.0000      0.13272E-02   0.0000       0.0000       0.0000       0.0000       0.0000       0.0000       0.0000       0.0000       0.0000    
    4   -0.23562E-02   0.0000       0.0000      0.23562E-02   0.0000       0.0000       0.0000       0.0000       0.0000       0.0000       0.0000       0.0000       0.0000    
     1 CALLS TO PCG ROUTINE FOR TIME STEP   2 IN STRESS PERIOD    2
     1 TOTAL ITERATIONS
 
 SOLVING FOR HEAD 
  LAMINAR PRECALCULATION
MODFLOW ITER.#  NEWTON-RAPHSON ITER.#   MAXIMUM NODE HEAD CHANGE
         1                   1                  0.0000000000


Solver Convergence Information:
                              HClose:  1.7763568E-15
                              RClose:  3.5527137E-15
                           L2-RClose:  7.1054274E-15
                         Rel-Vol-Err:  0.0
 
  LAMINAR PRECALCULATION
MODFLOW ITER.#  NEWTON-RAPHSON ITER.#   MAXIMUM NODE HEAD CHANGE
         1                   1                  0.0000000000

 NO OUTPUT CONTROL FOR STRESS PERIOD      2   TIME STEP     3
 
 
 CFPM1 CRITERION OF CONVERGENCE:     0.1000000E-05
 CFPM1 MAXIMUM NUMBER OF ITERATIONS:   100
 
 
 CFPM1 RESULTS +++++++++++++++++++++++++++++++++++++++++++++++++++++++
 
 STRESS PERIOD/TIME STEP           2           3
 
NUMBER OF NEWTON RHAPSON ITERATIONS:     1
 
 ------- RESULTS OF FLOW CALCULATION -------
 
NODE#  NODE HEAD[M]   MATRIX HEAD [M] EXCHANGE [M^3/S]      CAD STORAGE    CADS RECHARGE         PFPSFLOW  DIRECT RECHARGE            QWELL             FHLQ           CAUCHY        CAUCHY LQ              QLH             QFIX
    1  9.500    FIX      10.00000       -0.7853982E-03     0.000000         0.000000         0.000000         0.000000         0.000000         0.000000         0.000000         0.000000         0.000000       -0.7853982E-03
    2  9.500    FIX      9.761658       -0.8220224E-03     0.000000         0.000000         0.000000         0.000000         0.000000         0.000000         0.000000         0.000000         0.000000       -0.8220224E-03
    3  9.500    FIX      9.922446       -0.1327154E-02     0.000000         0.000000         0.000000         0.000000         0.000000         0.000000         0.000000         0.000000         0.000000       -0.1327154E-02
    4  9.500    FIX      11.00000       -0.2356194E-02     0.000000         0.000000         0.000000         0.000000         0.000000         0.000000         0.000000         0.000000         0.000000       -0.2356194E-02
 
TUBE  B  E  FLOW          Q [M^3/SEC]     DIAM.[M]        LEN.[M]        RE         RESIDENCE TIME [S]
    WARNING! TUBE    1 ACTIVE BUT NO FLOW
   1   1   2   LAMI.         0.00000        1.00000       10.00000        0.00000        0.00000
    WARNING! TUBE    2 ACTIVE BUT NO FLOW
   2   2   3   LAMI.         0.00000        1.00000       10.00000        0.00000        0.00000
    WARNING! TUBE    3 ACTIVE BUT NO FLOW
   3   3   4   LAMI.         0.00000        1.00000       10.00000        0.00000        0.00000
 

    BUDGET OF THE PIPE SYSTEM OF TIMESTEP    3 IN STRESS PERIOD    2
------------------------------------------------------------------------

  TOTAL SIMULATION TIME   130.000000000000      S
 
        CUMULATIVE VALUES (L**3)        RATES THIS TIME STEP (L**3/T)

            IN:                               IN:
     CONSTANT HEAD =   0.0000000          CONSTANT HEAD =   0.0000000    
   MATRIX EXCHANGE =  0.68780001        MATRIX EXCHANGE =  0.52907693E-02
     PIPE RECHARGE =   0.0000000          PIPE RECHARGE =   0.0000000    
       PFP STORAGE =   0.0000000            PFP STORAGE =   0.0000000    

     CUMULATIVE IN =  0.68780001               TOTAL IN =  0.52907693E-02

           OUT:                               OUT:
     CONSTANT HEAD =  0.68780001          CONSTANT HEAD =  0.52907693E-02
   MATRIX EXCHANGE =   0.0000000        MATRIX EXCHANGE =   0.0000000    
     PIPE RECHARGE =   0.0000000          PIPE RECHARGE =   0.0000000    
       PFP STORAGE =   0.0000000            PFP STORAGE =   0.0000000    

    CUMULATIVE OUT =  0.68780001              TOTAL OUT =  0.52907693E-02

          IN - OUT =   0.0000000               IN - OUT =   0.0000000    
     PERCENT ERROR =  0.00                PERCENT ERROR =  0.00


 
 ------------------------NODE WATER BUDGET-----------------------
  STRESS PERIOD           2  TIME STEP           3
 TOTAL SIMULATION TIME   130.000000000000     
 
 FLOW TO THE NODE IN M^3/S
 
 NODE     FIXED HEAD     RECHARGE        QWELL  MATRIX EXCH      STORAGE      TUBE_IN     TUBE_OUT         CADS     FHLQ(LQ)       CAUCHY   CAUCHY(LQ)          QLH     IN - OUT
    1   -0.78540E-03   0.0000       0.0000      0.78540E-03   0.0000       0.0000       0.0000       0.0000       0.0000       0.0000       0.0000       0.0000       0.0000    
    2   -0.82202E-03   0.0000       0.0000      0.82202E-03   0.0000       0.0000       0.0000       0.0000       0.0000       0.0000       0.0000       0.0000       0.0000    
    3   -0.13272E-02   0.0000       0.0000      0.13272E-02   0.0000       0.0000       0.0000       0.0000       0.0000       0.0000       0.0000       0.0000       0.0000    
    4   -0.23562E-02   0.0000       0.0000      0.23562E-02   0.0000       0.0000       0.0000       0.0000       0.0000       0.0000       0.0000       0.0000       0.0000    
     1 CALLS TO PCG ROUTINE FOR TIME STEP   3 IN STRESS PERIOD    2
     1 TOTAL ITERATIONS
 
 SOLVING FOR HEAD 
  LAMINAR PRECALCULATION
MODFLOW ITER.#  NEWTON-RAPHSON ITER.#   MAXIMUM NODE HEAD CHANGE
         1                   1                  0.0000000000


Solver Convergence Information:
                              HClose:  1.7763568E-15
                              RClose:  3.5527137E-15
                           L2-RClose:  7.1054545E-15
                         Rel-Vol-Err:  0.0
 
  LAMINAR PRECALCULATION
MODFLOW ITER.#  NEWTON-RAPHSON ITER.#   MAXIMUM NODE HEAD CHANGE
         1                   1                  0.0000000000

 NO OUTPUT CONTROL FOR STRESS PERIOD      2   TIME STEP     4
 
 
 CFPM1 CRITERION OF CONVERGENCE:     0.1000000E-05
 CFPM1 MAXIMUM NUMBER OF ITERATIONS:   100
 
 
 CFPM1 RESULTS +++++++++++++++++++++++++++++++++++++++++++++++++++++++
 
 STRESS PERIOD/TIME STEP           2           4
 
NUMBER OF NEWTON RHAPSON ITERATIONS:     1
 
 ------- RESULTS OF FLOW CALCULATION -------
 
NODE#  NODE HEAD[M]   MATRIX HEAD [M] EXCHANGE [M^3/S]      CAD STORAGE    CADS RECHARGE         PFPSFLOW  DIRECT RECHARGE            QWELL             FHLQ           CAUCHY        CAUCHY LQ              QLH             QFIX
    1  9.500    FIX      10.00000       -0.7853982E-03     0.000000         0.000000         0.000000         0.000000         0.000000         0.000000         0.000000         0.000000         0.000000       -0.7853982E-03
    2  9.500    FIX      9.761658       -0.8220224E-03     0.000000         0.000000         0.000000         0.000000         0.000000         0.000000         0.000000         0.000000         0.000000       -0.8220224E-03
    3  9.500    FIX      9.922446       -0.1327154E-02     0.000000         0.000000         0.000000         0.000000         0.000000         0.000000         0.000000         0.000000         0.000000       -0.1327154E-02
    4  9.500    FIX      11.00000       -0.2356194E-02     0.000000         0.000000         0.000000         0.000000         0.000000         0.000000         0.000000         0.000000         0.000000       -0.2356194E-02
 
TUBE  B  E  FLOW          Q [M^3/SEC]     DIAM.[M]        LEN.[M]        RE         RESIDENCE TIME [S]
    WARNING! TUBE    1 ACTIVE BUT NO FLOW
   1   1   2   LAMI.         0.00000        1.00000       10.00000        0.00000        0.00000
    WARNING! TUBE    2 ACTIVE BUT NO FLOW
   2   2   3   LAMI.         0.00000        1.00000       10.00000        0.00000        0.00000
    WARNING! TUBE    3 ACTIVE BUT NO FLOW
   3   3   4   LAMI.         0.00000        1.00000       10.00000        0.00000        0.00000
 

    BUDGET OF THE PIPE SYSTEM OF TIMESTEP    4 IN STRESS PERIOD    2
------------------------------------------------------------------------

  TOTAL SIMULATION TIME   140.000000000000      S
 
        CUMULATIVE VALUES (L**3)        RATES THIS TIME STEP (L**3/T)

            IN:                               IN:
     CONSTANT HEAD =   0.0000000          CONSTANT HEAD =   0.0000000    
   MATRIX EXCHANGE =  0.74070770        MATRIX EXCHANGE =  0.52907693E-02
     PIPE RECHARGE =   0.0000000          PIPE RECHARGE =   0.0000000    
       PFP STORAGE =   0.0000000            PFP STORAGE =   0.0000000    

     CUMULATIVE IN =  0.74070770               TOTAL IN =  0.52907693E-02

           OUT:                               OUT:
     CONSTANT HEAD =  0.74070770          CONSTANT HEAD =  0.52907693E-02
   MATRIX EXCHANGE =   0.0000000        MATRIX EXCHANGE =   0.0000000    
     PIPE RECHARGE =   0.0000000          PIPE RECHARGE =   0.0000000    
       PFP STORAGE =   0.0000000            PFP STORAGE =   0.0000000    

    CUMULATIVE OUT =  0.74070770              TOTAL OUT =  0.52907693E-02

          IN - OUT =   0.0000000               IN - OUT =   0.0000000    
     PERCENT ERROR =  0.00                PERCENT ERROR =  0.00


 
 ------------------------NODE WATER BUDGET-----------------------
  STRESS PERIOD           2  TIME STEP           4
 TOTAL SIMULATION TIME   140.000000000000     
 
 FLOW TO THE NODE IN M^3/S
 
 NODE     FIXED HEAD     RECHARGE        QWELL  MATRIX EXCH      STORAGE      TUBE_IN     TUBE_OUT         CADS     FHLQ(LQ)       CAUCHY   CAUCHY(LQ)          QLH     IN - OUT
    1   -0.78540E-03   0.0000       0.0000      0.78540E-03   0.0000       0.0000       0.0000       0.0000       0.0000       0.0000       0.0000       0.0000       0.0000    
    2   -0.82202E-03   0.0000       0.0000      0.82202E-03   0.0000       0.0000       0.0000       0.0000       0.0000       0.0000       0.0000       0.0000       0.0000    
    3   -0.13272E-02   0.0000       0.0000      0.13272E-02   0.0000       0.0000       0.0000       0.0000       0.0000       0.0000       0.0000       0.0000       0.0000    
    4   -0.23562E-02   0.0000       0.0000      0.23562E-02   0.0000       0.0000       0.0000       0.0000       0.0000       0.0000       0.0000       0.0000       0.0000    
     1 CALLS TO PCG ROUTINE FOR TIME STEP   4 IN STRESS PERIOD    2
     1 TOTAL ITERATIONS
 
 SOLVING FOR HEAD 
  LAMINAR PRECALCULATION
MODFLOW ITER.#  NEWTON-RAPHSON ITER.#   MAXIMUM NODE HEAD CHANGE
         1                   1                  0.0000000000


Solver Convergence Information:
                              HClose:  1.7763568E-15
                              RClose:  3.5527137E-15
                           L2-RClose:  7.1054409E-15
                         Rel-Vol-Err:  0.0
 
  LAMINAR PRECALCULATION
MODFLOW ITER.#  NEWTON-RAPHSON ITER.#   MAXIMUM NODE HEAD CHANGE
         1                   1                  0.0000000000

 NO OUTPUT CONTROL FOR STRESS PERIOD      2   TIME STEP     5
 
 
 CFPM1 CRITERION OF CONVERGENCE:     0.1000000E-05
 CFPM1 MAXIMUM NUMBER OF ITERATIONS:   100
 
 
 CFPM1 RESULTS +++++++++++++++++++++++++++++++++++++++++++++++++++++++
 
 STRESS PERIOD/TIME STEP           2           5
 
NUMBER OF NEWTON RHAPSON ITERATIONS:     1
 
 ------- RESULTS OF FLOW CALCULATION -------
 
NODE#  NODE HEAD[M]   MATRIX HEAD [M] EXCHANGE [M^3/S]      CAD STORAGE    CADS RECHARGE         PFPSFLOW  DIRECT RECHARGE            QWELL             FHLQ           CAUCHY        CAUCHY LQ              QLH             QFIX
    1  9.500    FIX      10.00000       -0.7853982E-03     0.000000         0.000000         0.000000         0.000000         0.000000         0.000000         0.000000         0.000000         0.000000       -0.7853982E-03
    2  9.500    FIX      9.761658       -0.8220224E-03     0.000000         0.000000         0.000000         0.000000         0.000000         0.000000         0.000000         0.000000         0.000000       -0.8220224E-03
    3  9.500    FIX      9.922446       -0.1327154E-02     0.000000         0.000000         0.000000         0.000000         0.000000         0.000000         0.000000         0.000000         0.000000       -0.1327154E-02
    4  9.500    FIX      11.00000       -0.2356194E-02     0.000000         0.000000         0.000000         0.000000         0.000000         0.000000         0.000000         0.000000         0.000000       -0.2356194E-02
 
TUBE  B  E  FLOW          Q [M^3/SEC]     DIAM.[M]        LEN.[M]        RE         RESIDENCE TIME [S]
    WARNING! TUBE    1 ACTIVE BUT NO FLOW
   1   1   2   LAMI.         0.00000        1.00000       10.00000        0.00000        0.00000
    WARNING! TUBE    2 ACTIVE BUT NO FLOW
   2   2   3   LAMI.         0.00000        1.00000       10.00000        0.00000        0.00000
    WARNING! TUBE    3 ACTIVE BUT NO FLOW
   3   3   4   LAMI.         0.00000        1.00000       10.00000        0.00000        0.00000
 

    BUDGET OF THE PIPE SYSTEM OF TIMESTEP    5 IN STRESS PERIOD    2
------------------------------------------------------------------------

  TOTAL SIMULATION TIME   150.000000000000      S
 
        CUMULATIVE VALUES (L**3)        RATES THIS TIME STEP (L**3/T)

            IN:                               IN:
     CONSTANT HEAD =   0.0000000          CONSTANT HEAD =   0.0000000    
   MATRIX EXCHANGE =  0.79361539        MATRIX EXCHANGE =  0.52907693E-02
     PIPE RECHARGE =   0.0000000          PIPE RECHARGE =   0.0000000    
       PFP STORAGE =   0.0000000            PFP STORAGE =   0.0000000    

     CUMULATIVE IN =  0.79361539               TOTAL IN =  0.52907693E-02

           OUT:                               OUT:
     CONSTANT HEAD =  0.79361539          CONSTANT HEAD =  0.52907693E-02
   MATRIX EXCHANGE =   0.0000000        MATRIX EXCHANGE =   0.0000000    
     PIPE RECHARGE =   0.0000000          PIPE RECHARGE =   0.0000000    
       PFP STORAGE =   0.0000000            PFP STORAGE =   0.0000000    

    CUMULATIVE OUT =  0.79361539              TOTAL OUT =  0.52907693E-02

          IN - OUT =   0.0000000               IN - OUT =   0.0000000    
     PERCENT ERROR =  0.00                PERCENT ERROR =  0.00


 
 ------------------------NODE WATER BUDGET-----------------------
  STRESS PERIOD           2  TIME STEP           5
 TOTAL SIMULATION TIME   150.000000000000     
 
 FLOW TO THE NODE IN M^3/S
 
 NODE     FIXED HEAD     RECHARGE        QWELL  MATRIX EXCH      STORAGE      TUBE_IN     TUBE_OUT         CADS     FHLQ(LQ)       CAUCHY   CAUCHY(LQ)          QLH     IN - OUT
    1   -0.78540E-03   0.0000       0.0000      0.78540E-03   0.0000       0.0000       0.0000       0.0000       0.0000       0.0000       0.0000       0.0000       0.0000    
    2   -0.82202E-03   0.0000       0.0000      0.82202E-03   0.0000       0.0000       0.0000       0.0000       0.0000       0.0000       0.0000       0.0000       0.0000    
    3   -0.13272E-02   0.0000       0.0000      0.13272E-02   0.0000       0.0000       0.0000       0.0000       0.0000       0.0000       0.0000       0.0000       0.0000    
    4   -0.23562E-02   0.0000       0.0000      0.23562E-02   0.0000       0.0000       0.0000       0.0000       0.0000       0.0000       0.0000       0.0000       0.0000    
     1 CALLS TO PCG ROUTINE FOR TIME STEP   5 IN STRESS PERIOD    2
     1 TOTAL ITERATIONS

 MAXIMUM HEAD CHANGE FOR EACH ITERATION (1 INDICATES THE FIRST INNER ITERATION):

    HEAD CHANGE    HEAD CHANGE    HEAD CHANGE    HEAD CHANGE    HEAD CHANGE 
   LAYER,ROW,COL  LAYER,ROW,COL  LAYER,ROW,COL  LAYER,ROW,COL  LAYER,ROW,COL
 ---------------------------------------------------------------------------
  1  0.2013E-14
   (  1,  3,  3)

 MAXIMUM RESIDUAL FOR EACH ITERATION (1 INDICATES THE FIRST INNER ITERATION):

    RESIDUAL       RESIDUAL       RESIDUAL       RESIDUAL       RESIDUAL    
   LAYER,ROW,COL  LAYER,ROW,COL  LAYER,ROW,COL  LAYER,ROW,COL  LAYER,ROW,COL
 ---------------------------------------------------------------------------
  1 -0.1452E-18
   (  1,  2,  4)


 
 SOLVING FOR HEAD 
  LAMINAR PRECALCULATION
MODFLOW ITER.#  NEWTON-RAPHSON ITER.#   MAXIMUM NODE HEAD CHANGE
         1                   1                  0.0000000000


Solver Convergence Information:
                              HClose:  1.7763568E-15
                              RClose:  3.5527137E-15
                           L2-RClose:  7.1054274E-15
                         Rel-Vol-Err:  0.0
 
  LAMINAR PRECALCULATION
MODFLOW ITER.#  NEWTON-RAPHSON ITER.#   MAXIMUM NODE HEAD CHANGE
         1                   1                  0.0000000000

 NO OUTPUT CONTROL FOR STRESS PERIOD      2   TIME STEP     6
 
 
 CFPM1 CRITERION OF CONVERGENCE:     0.1000000E-05
 CFPM1 MAXIMUM NUMBER OF ITERATIONS:   100
 
 
 CFPM1 RESULTS +++++++++++++++++++++++++++++++++++++++++++++++++++++++
 
 STRESS PERIOD/TIME STEP           2           6
 
NUMBER OF NEWTON RHAPSON ITERATIONS:     1
 
 ------- RESULTS OF FLOW CALCULATION -------
 
NODE#  NODE HEAD[M]   MATRIX HEAD [M] EXCHANGE [M^3/S]      CAD STORAGE    CADS RECHARGE         PFPSFLOW  DIRECT RECHARGE            QWELL             FHLQ           CAUCHY        CAUCHY LQ              QLH             QFIX
    1  9.500    FIX      10.00000       -0.7853982E-03     0.000000         0.000000         0.000000         0.000000         0.000000         0.000000         0.000000         0.000000         0.000000       -0.7853982E-03
    2  9.500    FIX      9.761658       -0.8220224E-03     0.000000         0.000000         0.000000         0.000000         0.000000         0.000000         0.000000         0.000000         0.000000       -0.8220224E-03
    3  9.500    FIX      9.922446       -0.1327154E-02     0.000000         0.000000         0.000000         0.000000         0.000000         0.000000         0.000000         0.000000         0.000000       -0.1327154E-02
    4  9.500    FIX      11.00000       -0.2356194E-02     0.000000         0.000000         0.000000         0.000000         0.000000         0.000000         0.000000         0.000000         0.000000       -0.2356194E-02
 
TUBE  B  E  FLOW          Q [M^3/SEC]     DIAM.[M]        LEN.[M]        RE         RESIDENCE TIME [S]
    WARNING! TUBE    1 ACTIVE BUT NO FLOW
   1   1   2   LAMI.         0.00000        1.00000       10.00000        0.00000        0.00000
    WARNING! TUBE    2 ACTIVE BUT NO FLOW
   2   2   3   LAMI.         0.00000        1.00000       10.00000        0.00000        0.00000
    WARNING! TUBE    3 ACTIVE BUT NO FLOW
   3   3   4   LAMI.         0.00000        1.00000       10.00000        0.00000        0.00000
 

    BUDGET OF THE PIPE SYSTEM OF TIMESTEP    6 IN STRESS PERIOD    2
------------------------------------------------------------------------

  TOTAL SIMULATION TIME   160.000000000000      S
 
        CUMULATIVE VALUES (L**3)        RATES THIS TIME STEP (L**3/T)

            IN:                               IN:
     CONSTANT HEAD =   0.0000000          CONSTANT HEAD =   0.0000000    
   MATRIX EXCHANGE =  0.84652309        MATRIX EXCHANGE =  0.52907693E-02
     PIPE RECHARGE =   0.0000000          PIPE RECHARGE =   0.0000000    
       PFP STORAGE =   0.0000000            PFP STORAGE =   0.0000000    

     CUMULATIVE IN =  0.84652309               TOTAL IN =  0.52907693E-02

           OUT:                               OUT:
     CONSTANT HEAD =  0.84652309          CONSTANT HEAD =  0.52907693E-02
   MATRIX EXCHANGE =   0.0000000        MATRIX EXCHANGE =   0.0000000    
     PIPE RECHARGE =   0.0000000          PIPE RECHARGE =   0.0000000    
       PFP STORAGE =   0.0000000            PFP STORAGE =   0.0000000    

    CUMULATIVE OUT =  0.84652309              TOTAL OUT =  0.52907693E-02

          IN - OUT =   0.0000000               IN - OUT =   0.0000000    
     PERCENT ERROR =  0.00                PERCENT ERROR =  0.00


 
 ------------------------NODE WATER BUDGET-----------------------
  STRESS PERIOD           2  TIME STEP           6
 TOTAL SIMULATION TIME   160.000000000000     
 
 FLOW TO THE NODE IN M^3/S
 
 NODE     FIXED HEAD     RECHARGE        QWELL  MATRIX EXCH      STORAGE      TUBE_IN     TUBE_OUT         CADS     FHLQ(LQ)       CAUCHY   CAUCHY(LQ)          QLH     IN - OUT
    1   -0.78540E-03   0.0000       0.0000      0.78540E-03   0.0000       0.0000       0.0000       0.0000       0.0000       0.0000       0.0000       0.0000       0.0000    
    2   -0.82202E-03   0.0000       0.0000      0.82202E-03   0.0000       0.0000       0.0000       0.0000       0.0000       0.0000       0.0000       0.0000       0.0000    
    3   -0.13272E-02   0.0000       0.0000      0.13272E-02   0.0000       0.0000       0.0000       0.0000       0.0000       0.0000       0.0000       0.0000       0.0000    
    4   -0.23562E-02   0.0000       0.0000      0.23562E-02   0.0000       0.0000       0.0000       0.0000       0.0000       0.0000       0.0000       0.0000       0.0000    
     1 CALLS TO PCG ROUTINE FOR TIME STEP   6 IN STRESS PERIOD    2
     1 TOTAL ITERATIONS
 
 SOLVING FOR HEAD 
  LAMINAR PRECALCULATION
MODFLOW ITER.#  NEWTON-RAPHSON ITER.#   MAXIMUM NODE HEAD CHANGE
         1                   1                  0.0000000000


Solver Convergence Information:
                              HClose:  1.7763568E-15
                              RClose:  3.5527137E-15
                           L2-RClose:  7.1054545E-15
                         Rel-Vol-Err:  0.0
 
  LAMINAR PRECALCULATION
MODFLOW ITER.#  NEWTON-RAPHSON ITER.#   MAXIMUM NODE HEAD CHANGE
         1                   1                  0.0000000000

 NO OUTPUT CONTROL FOR STRESS PERIOD      2   TIME STEP     7
 
 
 CFPM1 CRITERION OF CONVERGENCE:     0.1000000E-05
 CFPM1 MAXIMUM NUMBER OF ITERATIONS:   100
 
 
 CFPM1 RESULTS +++++++++++++++++++++++++++++++++++++++++++++++++++++++
 
 STRESS PERIOD/TIME STEP           2           7
 
NUMBER OF NEWTON RHAPSON ITERATIONS:     1
 
 ------- RESULTS OF FLOW CALCULATION -------
 
NODE#  NODE HEAD[M]   MATRIX HEAD [M] EXCHANGE [M^3/S]      CAD STORAGE    CADS RECHARGE         PFPSFLOW  DIRECT RECHARGE            QWELL             FHLQ           CAUCHY        CAUCHY LQ              QLH             QFIX
    1  9.500    FIX      10.00000       -0.7853982E-03     0.000000         0.000000         0.000000         0.000000         0.000000         0.000000         0.000000         0.000000         0.000000       -0.7853982E-03
    2  9.500    FIX      9.761658       -0.8220224E-03     0.000000         0.000000         0.000000         0.000000         0.000000         0.000000         0.000000         0.000000         0.000000       -0.8220224E-03
    3  9.500    FIX      9.922446       -0.1327154E-02     0.000000         0.000000         0.000000         0.000000         0.000000         0.000000         0.000000         0.000000         0.000000       -0.1327154E-02
    4  9.500    FIX      11.00000       -0.2356194E-02     0.000000         0.000000         0.000000         0.000000         0.000000         0.000000         0.000000         0.000000         0.000000       -0.2356194E-02
 
TUBE  B  E  FLOW          Q [M^3/SEC]     DIAM.[M]        LEN.[M]        RE         RESIDENCE TIME [S]
    WARNING! TUBE    1 ACTIVE BUT NO FLOW
   1   1   2   LAMI.         0.00000        1.00000       10.00000        0.00000        0.00000
    WARNING! TUBE    2 ACTIVE BUT NO FLOW
   2   2   3   LAMI.         0.00000        1.00000       10.00000        0.00000        0.00000
    WARNING! TUBE    3 ACTIVE BUT NO FLOW
   3   3   4   LAMI.         0.00000        1.00000       10.00000        0.00000        0.00000
 

    BUDGET OF THE PIPE SYSTEM OF TIMESTEP    7 IN STRESS PERIOD    2
------------------------------------------------------------------------

  TOTAL SIMULATION TIME   170.000000000000      S
 
        CUMULATIVE VALUES (L**3)        RATES THIS TIME STEP (L**3/T)

            IN:                               IN:
     CONSTANT HEAD =   0.0000000          CONSTANT HEAD =   0.0000000    
   MATRIX EXCHANGE =  0.89943078        MATRIX EXCHANGE =  0.52907693E-02
     PIPE RECHARGE =   0.0000000          PIPE RECHARGE =   0.0000000    
       PFP STORAGE =   0.0000000            PFP STORAGE =   0.0000000    

     CUMULATIVE IN =  0.89943078               TOTAL IN =  0.52907693E-02

           OUT:                               OUT:
     CONSTANT HEAD =  0.89943078          CONSTANT HEAD =  0.52907693E-02
   MATRIX EXCHANGE =   0.0000000        MATRIX EXCHANGE =   0.0000000    
     PIPE RECHARGE =   0.0000000          PIPE RECHARGE =   0.0000000    
       PFP STORAGE =   0.0000000            PFP STORAGE =   0.0000000    

    CUMULATIVE OUT =  0.89943078              TOTAL OUT =  0.52907693E-02

          IN - OUT =   0.0000000               IN - OUT =   0.0000000    
     PERCENT ERROR =  0.00                PERCENT ERROR =  0.00


 
 ------------------------NODE WATER BUDGET-----------------------
  STRESS PERIOD           2  TIME STEP           7
 TOTAL SIMULATION TIME   170.000000000000     
 
 FLOW TO THE NODE IN M^3/S
 
 NODE     FIXED HEAD     RECHARGE        QWELL  MATRIX EXCH      STORAGE      TUBE_IN     TUBE_OUT         CADS     FHLQ(LQ)       CAUCHY   CAUCHY(LQ)          QLH     IN - OUT
    1   -0.78540E-03   0.0000       0.0000      0.78540E-03   0.0000       0.0000       0.0000       0.0000       0.0000       0.0000       0.0000       0.0000       0.0000    
    2   -0.82202E-03   0.0000       0.0000      0.82202E-03   0.0000       0.0000       0.0000       0.0000       0.0000       0.0000       0.0000       0.0000       0.0000    
    3   -0.13272E-02   0.0000       0.0000      0.13272E-02   0.0000       0.0000       0.0000       0.0000       0.0000       0.0000       0.0000       0.0000       0.0000    
    4   -0.23562E-02   0.0000       0.0000      0.23562E-02   0.0000       0.0000       0.0000       0.0000       0.0000       0.0000       0.0000       0.0000       0.0000    
     1 CALLS TO PCG ROUTINE FOR TIME STEP   7 IN STRESS PERIOD    2
     1 TOTAL ITERATIONS
 
 SOLVING FOR HEAD 
  LAMINAR PRECALCULATION
MODFLOW ITER.#  NEWTON-RAPHSON ITER.#   MAXIMUM NODE HEAD CHANGE
         1                   1                  0.0000000000


Solver Convergence Information:
                              HClose:  1.7763568E-15
                              RClose:  3.5527137E-15
                           L2-RClose:  7.1054409E-15
                         Rel-Vol-Err:  0.0
 
  LAMINAR PRECALCULATION
MODFLOW ITER.#  NEWTON-RAPHSON ITER.#   MAXIMUM NODE HEAD CHANGE
         1                   1                  0.0000000000

 NO OUTPUT CONTROL FOR STRESS PERIOD      2   TIME STEP     8
 
 
 CFPM1 CRITERION OF CONVERGENCE:     0.1000000E-05
 CFPM1 MAXIMUM NUMBER OF ITERATIONS:   100
 
 
 CFPM1 RESULTS +++++++++++++++++++++++++++++++++++++++++++++++++++++++
 
 STRESS PERIOD/TIME STEP           2           8
 
NUMBER OF NEWTON RHAPSON ITERATIONS:     1
 
 ------- RESULTS OF FLOW CALCULATION -------
 
NODE#  NODE HEAD[M]   MATRIX HEAD [M] EXCHANGE [M^3/S]      CAD STORAGE    CADS RECHARGE         PFPSFLOW  DIRECT RECHARGE            QWELL             FHLQ           CAUCHY        CAUCHY LQ              QLH             QFIX
    1  9.500    FIX      10.00000       -0.7853982E-03     0.000000         0.000000         0.000000         0.000000         0.000000         0.000000         0.000000         0.000000         0.000000       -0.7853982E-03
    2  9.500    FIX      9.761658       -0.8220224E-03     0.000000         0.000000         0.000000         0.000000         0.000000         0.000000         0.000000         0.000000         0.000000       -0.8220224E-03
    3  9.500    FIX      9.922446       -0.1327154E-02     0.000000         0.000000         0.000000         0.000000         0.000000         0.000000         0.000000         0.000000         0.000000       -0.1327154E-02
    4  9.500    FIX      11.00000       -0.2356194E-02     0.000000         0.000000         0.000000         0.000000         0.000000         0.000000         0.000000         0.000000         0.000000       -0.2356194E-02
 
TUBE  B  E  FLOW          Q [M^3/SEC]     DIAM.[M]        LEN.[M]        RE         RESIDENCE TIME [S]
    WARNING! TUBE    1 ACTIVE BUT NO FLOW
   1   1   2   LAMI.         0.00000        1.00000       10.00000        0.00000        0.00000
    WARNING! TUBE    2 ACTIVE BUT NO FLOW
   2   2   3   LAMI.         0.00000        1.00000       10.00000        0.00000        0.00000
    WARNING! TUBE    3 ACTIVE BUT NO FLOW
   3   3   4   LAMI.         0.00000        1.00000       10.00000        0.00000        0.00000
 

    BUDGET OF THE PIPE SYSTEM OF TIMESTEP    8 IN STRESS PERIOD    2
------------------------------------------------------------------------

  TOTAL SIMULATION TIME   180.000000000000      S
 
        CUMULATIVE VALUES (L**3)        RATES THIS TIME STEP (L**3/T)

            IN:                               IN:
     CONSTANT HEAD =   0.0000000          CONSTANT HEAD =   0.0000000    
   MATRIX EXCHANGE =  0.95233847        MATRIX EXCHANGE =  0.52907693E-02
     PIPE RECHARGE =   0.0000000          PIPE RECHARGE =   0.0000000    
       PFP STORAGE =   0.0000000            PFP STORAGE =   0.0000000    

     CUMULATIVE IN =  0.95233847               TOTAL IN =  0.52907693E-02

           OUT:                               OUT:
     CONSTANT HEAD =  0.95233847          CONSTANT HEAD =  0.52907693E-02
   MATRIX EXCHANGE =   0.0000000        MATRIX EXCHANGE =   0.0000000    
     PIPE RECHARGE =   0.0000000          PIPE RECHARGE =   0.0000000    
       PFP STORAGE =   0.0000000            PFP STORAGE =   0.0000000    

    CUMULATIVE OUT =  0.95233847              TOTAL OUT =  0.52907693E-02

          IN - OUT =   0.0000000               IN - OUT =   0.0000000    
     PERCENT ERROR =  0.00                PERCENT ERROR =  0.00


 
 ------------------------NODE WATER BUDGET-----------------------
  STRESS PERIOD           2  TIME STEP           8
 TOTAL SIMULATION TIME   180.000000000000     
 
 FLOW TO THE NODE IN M^3/S
 
 NODE     FIXED HEAD     RECHARGE        QWELL  MATRIX EXCH      STORAGE      TUBE_IN     TUBE_OUT         CADS     FHLQ(LQ)       CAUCHY   CAUCHY(LQ)          QLH     IN - OUT
    1   -0.78540E-03   0.0000       0.0000      0.78540E-03   0.0000       0.0000       0.0000       0.0000       0.0000       0.0000       0.0000       0.0000       0.0000    
    2   -0.82202E-03   0.0000       0.0000      0.82202E-03   0.0000       0.0000       0.0000       0.0000       0.0000       0.0000       0.0000       0.0000       0.0000    
    3   -0.13272E-02   0.0000       0.0000      0.13272E-02   0.0000       0.0000       0.0000       0.0000       0.0000       0.0000       0.0000       0.0000       0.0000    
    4   -0.23562E-02   0.0000       0.0000      0.23562E-02   0.0000       0.0000       0.0000       0.0000       0.0000       0.0000       0.0000       0.0000       0.0000    
     1 CALLS TO PCG ROUTINE FOR TIME STEP   8 IN STRESS PERIOD    2
     1 TOTAL ITERATIONS
 
 SOLVING FOR HEAD 
  LAMINAR PRECALCULATION
MODFLOW ITER.#  NEWTON-RAPHSON ITER.#   MAXIMUM NODE HEAD CHANGE
         1                   1                  0.0000000000


Solver Convergence Information:
                              HClose:  1.7763568E-15
                              RClose:  3.5527137E-15
                           L2-RClose:  7.1054274E-15
                         Rel-Vol-Err:  0.0
 
  LAMINAR PRECALCULATION
MODFLOW ITER.#  NEWTON-RAPHSON ITER.#   MAXIMUM NODE HEAD CHANGE
         1                   1                  0.0000000000

 NO OUTPUT CONTROL FOR STRESS PERIOD      2   TIME STEP     9
 
 
 CFPM1 CRITERION OF CONVERGENCE:     0.1000000E-05
 CFPM1 MAXIMUM NUMBER OF ITERATIONS:   100
 
 
 CFPM1 RESULTS +++++++++++++++++++++++++++++++++++++++++++++++++++++++
 
 STRESS PERIOD/TIME STEP           2           9
 
NUMBER OF NEWTON RHAPSON ITERATIONS:     1
 
 ------- RESULTS OF FLOW CALCULATION -------
 
NODE#  NODE HEAD[M]   MATRIX HEAD [M] EXCHANGE [M^3/S]      CAD STORAGE    CADS RECHARGE         PFPSFLOW  DIRECT RECHARGE            QWELL             FHLQ           CAUCHY        CAUCHY LQ              QLH             QFIX
    1  9.500    FIX      10.00000       -0.7853982E-03     0.000000         0.000000         0.000000         0.000000         0.000000         0.000000         0.000000         0.000000         0.000000       -0.7853982E-03
    2  9.500    FIX      9.761658       -0.8220224E-03     0.000000         0.000000         0.000000         0.000000         0.000000         0.000000         0.000000         0.000000         0.000000       -0.8220224E-03
    3  9.500    FIX      9.922446       -0.1327154E-02     0.000000         0.000000         0.000000         0.000000         0.000000         0.000000         0.000000         0.000000         0.000000       -0.1327154E-02
    4  9.500    FIX      11.00000       -0.2356194E-02     0.000000         0.000000         0.000000         0.000000         0.000000         0.000000         0.000000         0.000000         0.000000       -0.2356194E-02
 
TUBE  B  E  FLOW          Q [M^3/SEC]     DIAM.[M]        LEN.[M]        RE         RESIDENCE TIME [S]
    WARNING! TUBE    1 ACTIVE BUT NO FLOW
   1   1   2   LAMI.         0.00000        1.00000       10.00000        0.00000        0.00000
    WARNING! TUBE    2 ACTIVE BUT NO FLOW
   2   2   3   LAMI.         0.00000        1.00000       10.00000        0.00000        0.00000
    WARNING! TUBE    3 ACTIVE BUT NO FLOW
   3   3   4   LAMI.         0.00000        1.00000       10.00000        0.00000        0.00000
 

    BUDGET OF THE PIPE SYSTEM OF TIMESTEP    9 IN STRESS PERIOD    2
------------------------------------------------------------------------

  TOTAL SIMULATION TIME   190.000000000000      S
 
        CUMULATIVE VALUES (L**3)        RATES THIS TIME STEP (L**3/T)

            IN:                               IN:
     CONSTANT HEAD =   0.0000000          CONSTANT HEAD =   0.0000000    
   MATRIX EXCHANGE =   1.0052462        MATRIX EXCHANGE =  0.52907693E-02
     PIPE RECHARGE =   0.0000000          PIPE RECHARGE =   0.0000000    
       PFP STORAGE =   0.0000000            PFP STORAGE =   0.0000000    

     CUMULATIVE IN =   1.0052462               TOTAL IN =  0.52907693E-02

           OUT:                               OUT:
     CONSTANT HEAD =   1.0052462          CONSTANT HEAD =  0.52907693E-02
   MATRIX EXCHANGE =   0.0000000        MATRIX EXCHANGE =   0.0000000    
     PIPE RECHARGE =   0.0000000          PIPE RECHARGE =   0.0000000    
       PFP STORAGE =   0.0000000            PFP STORAGE =   0.0000000    

    CUMULATIVE OUT =   1.0052462              TOTAL OUT =  0.52907693E-02

          IN - OUT =   0.0000000               IN - OUT =   0.0000000    
     PERCENT ERROR =  0.00                PERCENT ERROR =  0.00


 
 ------------------------NODE WATER BUDGET-----------------------
  STRESS PERIOD           2  TIME STEP           9
 TOTAL SIMULATION TIME   190.000000000000     
 
 FLOW TO THE NODE IN M^3/S
 
 NODE     FIXED HEAD     RECHARGE        QWELL  MATRIX EXCH      STORAGE      TUBE_IN     TUBE_OUT         CADS     FHLQ(LQ)       CAUCHY   CAUCHY(LQ)          QLH     IN - OUT
    1   -0.78540E-03   0.0000       0.0000      0.78540E-03   0.0000       0.0000       0.0000       0.0000       0.0000       0.0000       0.0000       0.0000       0.0000    
    2   -0.82202E-03   0.0000       0.0000      0.82202E-03   0.0000       0.0000       0.0000       0.0000       0.0000       0.0000       0.0000       0.0000       0.0000    
    3   -0.13272E-02   0.0000       0.0000      0.13272E-02   0.0000       0.0000       0.0000       0.0000       0.0000       0.0000       0.0000       0.0000       0.0000    
    4   -0.23562E-02   0.0000       0.0000      0.23562E-02   0.0000       0.0000       0.0000       0.0000       0.0000       0.0000       0.0000       0.0000       0.0000    
     1 CALLS TO PCG ROUTINE FOR TIME STEP   9 IN STRESS PERIOD    2
     1 TOTAL ITERATIONS
 
 SOLVING FOR HEAD 
  LAMINAR PRECALCULATION
MODFLOW ITER.#  NEWTON-RAPHSON ITER.#   MAXIMUM NODE HEAD CHANGE
         1                   1                  0.0000000000


Solver Convergence Information:
                              HClose:  1.7763568E-15
                              RClose:  3.5527137E-15
                           L2-RClose:  7.1054545E-15
                         Rel-Vol-Err:  0.0
 
  LAMINAR PRECALCULATION
MODFLOW ITER.#  NEWTON-RAPHSON ITER.#   MAXIMUM NODE HEAD CHANGE
         1                   1                  0.0000000000

 OUTPUT CONTROL FOR STRESS PERIOD      2   TIME STEP    10
    PRINT HEAD FOR ALL LAYERS
    SAVE HEAD FOR ALL LAYERS
    SAVE BUDGET
 UBDSV1 SAVING "         STORAGE" ON UNIT 50 AT TIME STEP 10, STRESS PERIOD 2
 UBDSV2 SAVING "   CONSTANT HEAD" ON UNIT 50 AT TIME STEP 10, STRESS PERIOD 2
 UBDSV1 SAVING "FLOW RIGHT FACE " ON UNIT 50 AT TIME STEP 10, STRESS PERIOD 2
 UBDSV1 SAVING "FLOW FRONT FACE " ON UNIT 50 AT TIME STEP 10, STRESS PERIOD 2
 
 
 CFPM1 CRITERION OF CONVERGENCE:     0.1000000E-05
 CFPM1 MAXIMUM NUMBER OF ITERATIONS:   100
 
 
 CFPM1 RESULTS +++++++++++++++++++++++++++++++++++++++++++++++++++++++
 
 STRESS PERIOD/TIME STEP           2          10
 
NUMBER OF NEWTON RHAPSON ITERATIONS:     1
 
 ------- RESULTS OF FLOW CALCULATION -------
 
NODE#  NODE HEAD[M]   MATRIX HEAD [M] EXCHANGE [M^3/S]      CAD STORAGE    CADS RECHARGE         PFPSFLOW  DIRECT RECHARGE            QWELL             FHLQ           CAUCHY        CAUCHY LQ              QLH             QFIX
    1  9.500    FIX      10.00000       -0.7853982E-03     0.000000         0.000000         0.000000         0.000000         0.000000         0.000000         0.000000         0.000000         0.000000       -0.7853982E-03
    2  9.500    FIX      9.761658       -0.8220224E-03     0.000000         0.000000         0.000000         0.000000         0.000000         0.000000         0.000000         0.000000         0.000000       -0.8220224E-03
    3  9.500    FIX      9.922446       -0.1327154E-02     0.000000         0.000000         0.000000         0.000000         0.000000         0.000000         0.000000         0.000000         0.000000       -0.1327154E-02
    4  9.500    FIX      11.00000       -0.2356194E-02     0.000000         0.000000         0.000000         0.000000         0.000000         0.000000         0.000000         0.000000         0.000000       -0.2356194E-02
 
TUBE  B  E  FLOW          Q [M^3/SEC]     DIAM.[M]        LEN.[M]        RE         RESIDENCE TIME [S]
    WARNING! TUBE    1 ACTIVE BUT NO FLOW
   1   1   2   LAMI.         0.00000        1.00000       10.00000        0.00000        0.00000
    WARNING! TUBE    2 ACTIVE BUT NO FLOW
   2   2   3   LAMI.         0.00000        1.00000       10.00000        0.00000        0.00000
    WARNING! TUBE    3 ACTIVE BUT NO FLOW
   3   3   4   LAMI.         0.00000        1.00000       10.00000        0.00000        0.00000
 

    BUDGET OF THE PIPE SYSTEM OF TIMESTEP   10 IN STRESS PERIOD    2
------------------------------------------------------------------------

  TOTAL SIMULATION TIME   200.000000000000      S
 
        CUMULATIVE VALUES (L**3)        RATES THIS TIME STEP (L**3/T)

            IN:                               IN:
     CONSTANT HEAD =   0.0000000          CONSTANT HEAD =   0.0000000    
   MATRIX EXCHANGE =   1.0581539        MATRIX EXCHANGE =  0.52907693E-02
     PIPE RECHARGE =   0.0000000          PIPE RECHARGE =   0.0000000    
       PFP STORAGE =   0.0000000            PFP STORAGE =   0.0000000    

     CUMULATIVE IN =   1.0581539               TOTAL IN =  0.52907693E-02

           OUT:                               OUT:
     CONSTANT HEAD =   1.0581539          CONSTANT HEAD =  0.52907693E-02
   MATRIX EXCHANGE =   0.0000000        MATRIX EXCHANGE =   0.0000000    
     PIPE RECHARGE =   0.0000000          PIPE RECHARGE =   0.0000000    
       PFP STORAGE =   0.0000000            PFP STORAGE =   0.0000000    

    CUMULATIVE OUT =   1.0581539              TOTAL OUT =  0.52907693E-02

          IN - OUT =   0.0000000               IN - OUT =   0.0000000    
     PERCENT ERROR =  0.00                PERCENT ERROR =  0.00


 
 ------------------------NODE WATER BUDGET-----------------------
  STRESS PERIOD           2  TIME STEP          10
 TOTAL SIMULATION TIME   200.000000000000     
 
 FLOW TO THE NODE IN M^3/S
 
 NODE     FIXED HEAD     RECHARGE        QWELL  MATRIX EXCH      STORAGE      TUBE_IN     TUBE_OUT         CADS     FHLQ(LQ)       CAUCHY   CAUCHY(LQ)          QLH     IN - OUT
    1   -0.78540E-03   0.0000       0.0000      0.78540E-03   0.0000       0.0000       0.0000       0.0000       0.0000       0.0000       0.0000       0.0000       0.0000    
    2   -0.82202E-03   0.0000       0.0000      0.82202E-03   0.0000       0.0000       0.0000       0.0000       0.0000       0.0000       0.0000       0.0000       0.0000    
    3   -0.13272E-02   0.0000       0.0000      0.13272E-02   0.0000       0.0000       0.0000       0.0000       0.0000       0.0000       0.0000       0.0000       0.0000    
    4   -0.23562E-02   0.0000       0.0000      0.23562E-02   0.0000       0.0000       0.0000       0.0000       0.0000       0.0000       0.0000       0.0000       0.0000    
     1 CALLS TO PCG ROUTINE FOR TIME STEP  10 IN STRESS PERIOD    2
     1 TOTAL ITERATIONS

 MAXIMUM HEAD CHANGE FOR EACH ITERATION (1 INDICATES THE FIRST INNER ITERATION):

    HEAD CHANGE    HEAD CHANGE    HEAD CHANGE    HEAD CHANGE    HEAD CHANGE 
   LAYER,ROW,COL  LAYER,ROW,COL  LAYER,ROW,COL  LAYER,ROW,COL  LAYER,ROW,COL
 ---------------------------------------------------------------------------
  1 -0.9547E-15
   (  1,  3,  3)

 MAXIMUM RESIDUAL FOR EACH ITERATION (1 INDICATES THE FIRST INNER ITERATION):

    RESIDUAL       RESIDUAL       RESIDUAL       RESIDUAL       RESIDUAL    
   LAYER,ROW,COL  LAYER,ROW,COL  LAYER,ROW,COL  LAYER,ROW,COL  LAYER,ROW,COL
 ---------------------------------------------------------------------------
  1  0.6889E-19
   (  1,  2,  4)


1
              HEAD IN LAYER   1 AT END OF TIME STEP  10 IN STRESS PERIOD    2
  ---------------------------------------------------------------------------

          1         2         3         4         5
 ..................................................
   1    10.       10.       10.       10.       10.    
   2    10.       10.       9.8       10.       10.    
   3    11.       10.       9.9       10.       11.    
   4    11.       11.       11.       11.       11.    

 HEAD WILL BE SAVED ON UNIT   51 AT END OF TIME STEP    10 IN STRESS PERIOD      2



  -------------------------------------------------------------------------------------
  VOLUMETRIC BUDGET FOR ENTIRE MODEL AT END OF TIME STEP   10 IN STRESS PERIOD      2
  -------------------------------------------------------------------------------------

     CUMULATIVE VOLUMES      L**3       RATES FOR THIS TIME STEP      L**3/T
     ------------------                 ------------------------

           IN:                                      IN:
           ---                                      ---
             STORAGE =       5.8466E-16               STORAGE =       1.2468E-18
       CONSTANT HEAD =           1.0936         CONSTANT HEAD =       5.4679E-03
               PIPES =           0.0000                 PIPES =           0.0000

            TOTAL IN =           1.0936              TOTAL IN =       5.4679E-03

          OUT:                                     OUT:
          ----                                     ----
             STORAGE =       6.2342E-17               STORAGE =       1.2468E-18
       CONSTANT HEAD =       3.5428E-02         CONSTANT HEAD =       1.7714E-04
               PIPES =           1.0582                 PIPES =       5.2908E-03

           TOTAL OUT =           1.0936             TOTAL OUT =       5.4679E-03

            IN - OUT =      -1.3271E-09              IN - OUT =       1.4225E-16

 PERCENT DISCREPANCY =          -0.00     PERCENT DISCREPANCY =           0.00


          TIME SUMMARY AT END OF TIME STEP    10 IN STRESS PERIOD      2
                    SECONDS     MINUTES      HOURS       DAYS        YEARS
                    -----------------------------------------------------------
   TIME STEP LENGTH  10.000     0.16667     2.77778E-03 1.15741E-04 3.16881E-07
 STRESS PERIOD TIME  100.00      1.6667     2.77778E-02 1.15741E-03 3.16881E-06
         TOTAL TIME  200.00      3.3333     5.55556E-02 2.31481E-03 6.33762E-06
 
1
                            STRESS PERIOD NO.      3, LENGTH =   100.0000    
                            -----------------------------------------------

                              NUMBER OF TIME STEPS =    10

                               MULTIPLIER FOR DELT =     1.000

                            INITIAL TIME STEP SIZE =   10.00000    
 
 SOLVING FOR HEAD 
  LAMINAR PRECALCULATION
MODFLOW ITER.#  NEWTON-RAPHSON ITER.#   MAXIMUM NODE HEAD CHANGE
         1                   1                  0.0000000000


Solver Convergence Information:
                              HClose:  1.7763568E-15
                              RClose:  3.5527137E-15
                           L2-RClose:  7.1054409E-15
                         Rel-Vol-Err:  0.0
 
  LAMINAR PRECALCULATION
MODFLOW ITER.#  NEWTON-RAPHSON ITER.#   MAXIMUM NODE HEAD CHANGE
         1                   1                  0.0000000000

 NO OUTPUT CONTROL FOR STRESS PERIOD      3   TIME STEP     1
 
 
 CFPM1 CRITERION OF CONVERGENCE:     0.1000000E-05
 CFPM1 MAXIMUM NUMBER OF ITERATIONS:   100
 
 
 CFPM1 RESULTS +++++++++++++++++++++++++++++++++++++++++++++++++++++++
 
 STRESS PERIOD/TIME STEP           3           1
 
NUMBER OF NEWTON RHAPSON ITERATIONS:     1
 
 ------- RESULTS OF FLOW CALCULATION -------
 
NODE#  NODE HEAD[M]   MATRIX HEAD [M] EXCHANGE [M^3/S]      CAD STORAGE    CADS RECHARGE         PFPSFLOW  DIRECT RECHARGE            QWELL             FHLQ           CAUCHY        CAUCHY LQ              QLH             QFIX
    1  9.500    FIX      10.00000       -0.7853982E-03     0.000000         0.000000         0.000000         0.000000         0.000000         0.000000         0.000000         0.000000         0.000000       -0.7853982E-03
    2  9.500    FIX      9.761658       -0.8220224E-03     0.000000         0.000000         0.000000         0.000000         0.000000         0.000000         0.000000         0.000000         0.000000       -0.8220224E-03
    3  9.500    FIX      9.922446       -0.1327154E-02     0.000000         0.000000         0.000000         0.000000         0.000000         0.000000         0.000000         0.000000         0.000000       -0.1327154E-02
    4  9.500    FIX      11.00000       -0.2356194E-02     0.000000         0.000000         0.000000         0.000000         0.000000         0.000000         0.000000         0.000000         0.000000       -0.2356194E-02
 
TUBE  B  E  FLOW          Q [M^3/SEC]     DIAM.[M]        LEN.[M]        RE         RESIDENCE TIME [S]
    WARNING! TUBE    1 ACTIVE BUT NO FLOW
   1   1   2   LAMI.         0.00000        1.00000       10.00000        0.00000        0.00000
    WARNING! TUBE    2 ACTIVE BUT NO FLOW
   2   2   3   LAMI.         0.00000        1.00000       10.00000        0.00000        0.00000
    WARNING! TUBE    3 ACTIVE BUT NO FLOW
   3   3   4   LAMI.         0.00000        1.00000       10.00000        0.00000        0.00000
 

    BUDGET OF THE PIPE SYSTEM OF TIMESTEP    1 IN STRESS PERIOD    3
------------------------------------------------------------------------

  TOTAL SIMULATION TIME   210.000000000000      S
 
        CUMULATIVE VALUES (L**3)        RATES THIS TIME STEP (L**3/T)

            IN:                               IN:
     CONSTANT HEAD =   0.0000000          CONSTANT HEAD =   0.0000000    
   MATRIX EXCHANGE =   1.1110616        MATRIX EXCHANGE =  0.52907693E-02
     PIPE RECHARGE =   0.0000000          PIPE RECHARGE =   0.0000000    
       PFP STORAGE =   0.0000000            PFP STORAGE =   0.0000000    

     CUMULATIVE IN =   1.1110616               TOTAL IN =  0.52907693E-02

           OUT:                               OUT:
     CONSTANT HEAD =   1.1110616          CONSTANT HEAD =  0.52907693E-02
   MATRIX EXCHANGE =   0.0000000        MATRIX EXCHANGE =   0.0000000    
     PIPE RECHARGE =   0.0000000          PIPE RECHARGE =   0.0000000    
       PFP STORAGE =   0.0000000            PFP STORAGE =   0.0000000    

    CUMULATIVE OUT =   1.1110616              TOTAL OUT =  0.52907693E-02

          IN - OUT =   0.0000000               IN - OUT =   0.0000000    
     PERCENT ERROR =  0.00                PERCENT ERROR =  0.00


 
 ------------------------NODE WATER BUDGET-----------------------
  STRESS PERIOD           3  TIME STEP           1
 TOTAL SIMULATION TIME   210.000000000000     
 
 FLOW TO THE NODE IN M^3/S
 
 NODE     FIXED HEAD     RECHARGE        QWELL  MATRIX EXCH      STORAGE      TUBE_IN     TUBE_OUT         CADS     FHLQ(LQ)       CAUCHY   CAUCHY(LQ)          QLH     IN - OUT
    1   -0.78540E-03   0.0000       0.0000      0.78540E-03   0.0000       0.0000       0.0000       0.0000       0.0000       0.0000       0.0000       0.0000       0.0000    
    2   -0.82202E-03   0.0000       0.0000      0.82202E-03   0.0000       0.0000       0.0000       0.0000       0.0000       0.0000       0.0000       0.0000       0.0000    
    3   -0.13272E-02   0.0000       0.0000      0.13272E-02   0.0000       0.0000       0.0000       0.0000       0.0000       0.0000       0.0000       0.0000       0.0000    
    4   -0.23562E-02   0.0000       0.0000      0.23562E-02   0.0000       0.0000       0.0000       0.0000       0.0000       0.0000       0.0000       0.0000       0.0000    


     1 CALLS TO PCG ROUTINE FOR TIME STEP   1 IN STRESS PERIOD    3
     1 TOTAL ITERATIONS
 
 SOLVING FOR HEAD 
  LAMINAR PRECALCULATION
MODFLOW ITER.#  NEWTON-RAPHSON ITER.#   MAXIMUM NODE HEAD CHANGE
         1                   1                  0.0000000000


Solver Convergence Information:
                              HClose:  1.7763568E-15
                              RClose:  3.5527137E-15
                           L2-RClose:  7.1054274E-15
                         Rel-Vol-Err:  0.0
 
  LAMINAR PRECALCULATION
MODFLOW ITER.#  NEWTON-RAPHSON ITER.#   MAXIMUM NODE HEAD CHANGE
         1                   1                  0.0000000000

 NO OUTPUT CONTROL FOR STRESS PERIOD      3   TIME STEP     2
 
 
 CFPM1 CRITERION OF CONVERGENCE:     0.1000000E-05
 CFPM1 MAXIMUM NUMBER OF ITERATIONS:   100
 
 
 CFPM1 RESULTS +++++++++++++++++++++++++++++++++++++++++++++++++++++++
 
 STRESS PERIOD/TIME STEP           3           2
 
NUMBER OF NEWTON RHAPSON ITERATIONS:     1
 
 ------- RESULTS OF FLOW CALCULATION -------
 
NODE#  NODE HEAD[M]   MATRIX HEAD [M] EXCHANGE [M^3/S]      CAD STORAGE    CADS RECHARGE         PFPSFLOW  DIRECT RECHARGE            QWELL             FHLQ           CAUCHY        CAUCHY LQ              QLH             QFIX
    1  9.500    FIX      10.00000       -0.7853982E-03     0.000000         0.000000         0.000000         0.000000         0.000000         0.000000         0.000000         0.000000         0.000000       -0.7853982E-03
    2  9.500    FIX      9.761658       -0.8220224E-03     0.000000         0.000000         0.000000         0.000000         0.000000         0.000000         0.000000         0.000000         0.000000       -0.8220224E-03
    3  9.500    FIX      9.922446       -0.1327154E-02     0.000000         0.000000         0.000000         0.000000         0.000000         0.000000         0.000000         0.000000         0.000000       -0.1327154E-02
    4  9.500    FIX      11.00000       -0.2356194E-02     0.000000         0.000000         0.000000         0.000000         0.000000         0.000000         0.000000         0.000000         0.000000       -0.2356194E-02
 
TUBE  B  E  FLOW          Q [M^3/SEC]     DIAM.[M]        LEN.[M]        RE         RESIDENCE TIME [S]
    WARNING! TUBE    1 ACTIVE BUT NO FLOW
   1   1   2   LAMI.         0.00000        1.00000       10.00000        0.00000        0.00000
    WARNING! TUBE    2 ACTIVE BUT NO FLOW
   2   2   3   LAMI.         0.00000        1.00000       10.00000        0.00000        0.00000
    WARNING! TUBE    3 ACTIVE BUT NO FLOW
   3   3   4   LAMI.         0.00000        1.00000       10.00000        0.00000        0.00000
 

    BUDGET OF THE PIPE SYSTEM OF TIMESTEP    2 IN STRESS PERIOD    3
------------------------------------------------------------------------

  TOTAL SIMULATION TIME   220.000000000000      S
 
        CUMULATIVE VALUES (L**3)        RATES THIS TIME STEP (L**3/T)

            IN:                               IN:
     CONSTANT HEAD =   0.0000000          CONSTANT HEAD =   0.0000000    
   MATRIX EXCHANGE =   1.1639692        MATRIX EXCHANGE =  0.52907693E-02
     PIPE RECHARGE =   0.0000000          PIPE RECHARGE =   0.0000000    
       PFP STORAGE =   0.0000000            PFP STORAGE =   0.0000000    

     CUMULATIVE IN =   1.1639692               TOTAL IN =  0.52907693E-02

           OUT:                               OUT:
     CONSTANT HEAD =   1.1639692          CONSTANT HEAD =  0.52907693E-02
   MATRIX EXCHANGE =   0.0000000        MATRIX EXCHANGE =   0.0000000    
     PIPE RECHARGE =   0.0000000          PIPE RECHARGE =   0.0000000    
       PFP STORAGE =   0.0000000            PFP STORAGE =   0.0000000    

    CUMULATIVE OUT =   1.1639692              TOTAL OUT =  0.52907693E-02

          IN - OUT =   0.0000000               IN - OUT =   0.0000000    
     PERCENT ERROR =  0.00                PERCENT ERROR =  0.00


 
 ------------------------NODE WATER BUDGET-----------------------
  STRESS PERIOD           3  TIME STEP           2
 TOTAL SIMULATION TIME   220.000000000000     
 
 FLOW TO THE NODE IN M^3/S
 
 NODE     FIXED HEAD     RECHARGE        QWELL  MATRIX EXCH      STORAGE      TUBE_IN     TUBE_OUT         CADS     FHLQ(LQ)       CAUCHY   CAUCHY(LQ)          QLH     IN - OUT
    1   -0.78540E-03   0.0000       0.0000      0.78540E-03   0.0000       0.0000       0.0000       0.0000       0.0000       0.0000       0.0000       0.0000       0.0000    
    2   -0.82202E-03   0.0000       0.0000      0.82202E-03   0.0000       0.0000       0.0000       0.0000       0.0000       0.0000       0.0000       0.0000       0.0000    
    3   -0.13272E-02   0.0000       0.0000      0.13272E-02   0.0000       0.0000       0.0000       0.0000       0.0000       0.0000       0.0000       0.0000       0.0000    
    4   -0.23562E-02   0.0000       0.0000      0.23562E-02   0.0000       0.0000       0.0000       0.0000       0.0000       0.0000       0.0000       0.0000       0.0000    
     1 CALLS TO PCG ROUTINE FOR TIME STEP   2 IN STRESS PERIOD    3
     1 TOTAL ITERATIONS
 
 SOLVING FOR HEAD 
  LAMINAR PRECALCULATION
MODFLOW ITER.#  NEWTON-RAPHSON ITER.#   MAXIMUM NODE HEAD CHANGE
         1                   1                  0.0000000000


Solver Convergence Information:
                              HClose:  1.7763568E-15
                              RClose:  3.5527137E-15
                           L2-RClose:  7.1054545E-15
                         Rel-Vol-Err:  0.0
 
  LAMINAR PRECALCULATION
MODFLOW ITER.#  NEWTON-RAPHSON ITER.#   MAXIMUM NODE HEAD CHANGE
         1                   1                  0.0000000000

 NO OUTPUT CONTROL FOR STRESS PERIOD      3   TIME STEP     3
 
 
 CFPM1 CRITERION OF CONVERGENCE:     0.1000000E-05
 CFPM1 MAXIMUM NUMBER OF ITERATIONS:   100
 
 
 CFPM1 RESULTS +++++++++++++++++++++++++++++++++++++++++++++++++++++++
 
 STRESS PERIOD/TIME STEP           3           3
 
NUMBER OF NEWTON RHAPSON ITERATIONS:     1
 
 ------- RESULTS OF FLOW CALCULATION -------
 
NODE#  NODE HEAD[M]   MATRIX HEAD [M] EXCHANGE [M^3/S]      CAD STORAGE    CADS RECHARGE         PFPSFLOW  DIRECT RECHARGE            QWELL             FHLQ           CAUCHY        CAUCHY LQ              QLH             QFIX
    1  9.500    FIX      10.00000       -0.7853982E-03     0.000000         0.000000         0.000000         0.000000         0.000000         0.000000         0.000000         0.000000         0.000000       -0.7853982E-03
    2  9.500    FIX      9.761658       -0.8220224E-03     0.000000         0.000000         0.000000         0.000000         0.000000         0.000000         0.000000         0.000000         0.000000       -0.8220224E-03
    3  9.500    FIX      9.922446       -0.1327154E-02     0.000000         0.000000         0.000000         0.000000         0.000000         0.000000         0.000000         0.000000         0.000000       -0.1327154E-02
    4  9.500    FIX      11.00000       -0.2356194E-02     0.000000         0.000000         0.000000         0.000000         0.000000         0.000000         0.000000         0.000000         0.000000       -0.2356194E-02
 
TUBE  B  E  FLOW          Q [M^3/SEC]     DIAM.[M]        LEN.[M]        RE         RESIDENCE TIME [S]
    WARNING! TUBE    1 ACTIVE BUT NO FLOW
   1   1   2   LAMI.         0.00000        1.00000       10.00000        0.00000        0.00000
    WARNING! TUBE    2 ACTIVE BUT NO FLOW
   2   2   3   LAMI.         0.00000        1.00000       10.00000        0.00000        0.00000
    WARNING! TUBE    3 ACTIVE BUT NO FLOW
   3   3   4   LAMI.         0.00000        1.00000       10.00000        0.00000        0.00000
 

    BUDGET OF THE PIPE SYSTEM OF TIMESTEP    3 IN STRESS PERIOD    3
------------------------------------------------------------------------

  TOTAL SIMULATION TIME   230.000000000000      S
 
        CUMULATIVE VALUES (L**3)        RATES THIS TIME STEP (L**3/T)

            IN:                               IN:
     CONSTANT HEAD =   0.0000000          CONSTANT HEAD =   0.0000000    
   MATRIX EXCHANGE =   1.2168769        MATRIX EXCHANGE =  0.52907693E-02
     PIPE RECHARGE =   0.0000000          PIPE RECHARGE =   0.0000000    
       PFP STORAGE =   0.0000000            PFP STORAGE =   0.0000000    

     CUMULATIVE IN =   1.2168769               TOTAL IN =  0.52907693E-02

           OUT:                               OUT:
     CONSTANT HEAD =   1.2168769          CONSTANT HEAD =  0.52907693E-02
   MATRIX EXCHANGE =   0.0000000        MATRIX EXCHANGE =   0.0000000    
     PIPE RECHARGE =   0.0000000          PIPE RECHARGE =   0.0000000    
       PFP STORAGE =   0.0000000            PFP STORAGE =   0.0000000    

    CUMULATIVE OUT =   1.2168769              TOTAL OUT =  0.52907693E-02

          IN - OUT =   0.0000000               IN - OUT =   0.0000000    
     PERCENT ERROR =  0.00                PERCENT ERROR =  0.00


 
 ------------------------NODE WATER BUDGET-----------------------
  STRESS PERIOD           3  TIME STEP           3
 TOTAL SIMULATION TIME   230.000000000000     
 
 FLOW TO THE NODE IN M^3/S
 
 NODE     FIXED HEAD     RECHARGE        QWELL  MATRIX EXCH      STORAGE      TUBE_IN     TUBE_OUT         CADS     FHLQ(LQ)       CAUCHY   CAUCHY(LQ)          QLH     IN - OUT
    1   -0.78540E-03   0.0000       0.0000      0.78540E-03   0.0000       0.0000       0.0000       0.0000       0.0000       0.0000       0.0000       0.0000       0.0000    
    2   -0.82202E-03   0.0000       0.0000      0.82202E-03   0.0000       0.0000       0.0000       0.0000       0.0000       0.0000       0.0000       0.0000       0.0000    
    3   -0.13272E-02   0.0000       0.0000      0.13272E-02   0.0000       0.0000       0.0000       0.0000       0.0000       0.0000       0.0000       0.0000       0.0000    
    4   -0.23562E-02   0.0000       0.0000      0.23562E-02   0.0000       0.0000       0.0000       0.0000       0.0000       0.0000       0.0000       0.0000       0.0000    
     1 CALLS TO PCG ROUTINE FOR TIME STEP   3 IN STRESS PERIOD    3
     1 TOTAL ITERATIONS
 
 SOLVING FOR HEAD 
  LAMINAR PRECALCULATION
MODFLOW ITER.#  NEWTON-RAPHSON ITER.#   MAXIMUM NODE HEAD CHANGE
         1                   1                  0.0000000000


Solver Convergence Information:
                              HClose:  1.7763568E-15
                              RClose:  3.5527137E-15
                           L2-RClose:  7.1054409E-15
                         Rel-Vol-Err:  0.0
 
  LAMINAR PRECALCULATION
MODFLOW ITER.#  NEWTON-RAPHSON ITER.#   MAXIMUM NODE HEAD CHANGE
         1                   1                  0.0000000000

 NO OUTPUT CONTROL FOR STRESS PERIOD      3   TIME STEP     4
 
 
 CFPM1 CRITERION OF CONVERGENCE:     0.1000000E-05
 CFPM1 MAXIMUM NUMBER OF ITERATIONS:   100
 
 
 CFPM1 RESULTS +++++++++++++++++++++++++++++++++++++++++++++++++++++++
 
 STRESS PERIOD/TIME STEP           3           4
 
NUMBER OF NEWTON RHAPSON ITERATIONS:     1
 
 ------- RESULTS OF FLOW CALCULATION -------
 
NODE#  NODE HEAD[M]   MATRIX HEAD [M] EXCHANGE [M^3/S]      CAD STORAGE    CADS RECHARGE         PFPSFLOW  DIRECT RECHARGE            QWELL             FHLQ           CAUCHY        CAUCHY LQ              QLH             QFIX
    1  9.500    FIX      10.00000       -0.7853982E-03     0.000000         0.000000         0.000000         0.000000         0.000000         0.000000         0.000000         0.000000         0.000000       -0.7853982E-03
    2  9.500    FIX      9.761658       -0.8220224E-03     0.000000         0.000000         0.000000         0.000000         0.000000         0.000000         0.000000         0.000000         0.000000       -0.8220224E-03
    3  9.500    FIX      9.922446       -0.1327154E-02     0.000000         0.000000         0.000000         0.000000         0.000000         0.000000         0.000000         0.000000         0.000000       -0.1327154E-02
    4  9.500    FIX      11.00000       -0.2356194E-02     0.000000         0.000000         0.000000         0.000000         0.000000         0.000000         0.000000         0.000000         0.000000       -0.2356194E-02
 
TUBE  B  E  FLOW          Q [M^3/SEC]     DIAM.[M]        LEN.[M]        RE         RESIDENCE TIME [S]
    WARNING! TUBE    1 ACTIVE BUT NO FLOW
   1   1   2   LAMI.         0.00000        1.00000       10.00000        0.00000        0.00000
    WARNING! TUBE    2 ACTIVE BUT NO FLOW
   2   2   3   LAMI.         0.00000        1.00000       10.00000        0.00000        0.00000
    WARNING! TUBE    3 ACTIVE BUT NO FLOW
   3   3   4   LAMI.         0.00000        1.00000       10.00000        0.00000        0.00000
 

    BUDGET OF THE PIPE SYSTEM OF TIMESTEP    4 IN STRESS PERIOD    3
------------------------------------------------------------------------

  TOTAL SIMULATION TIME   240.000000000000      S
 
        CUMULATIVE VALUES (L**3)        RATES THIS TIME STEP (L**3/T)

            IN:                               IN:
     CONSTANT HEAD =   0.0000000          CONSTANT HEAD =   0.0000000    
   MATRIX EXCHANGE =   1.2697846        MATRIX EXCHANGE =  0.52907693E-02
     PIPE RECHARGE =   0.0000000          PIPE RECHARGE =   0.0000000    
       PFP STORAGE =   0.0000000            PFP STORAGE =   0.0000000    

     CUMULATIVE IN =   1.2697846               TOTAL IN =  0.52907693E-02

           OUT:                               OUT:
     CONSTANT HEAD =   1.2697846          CONSTANT HEAD =  0.52907693E-02
   MATRIX EXCHANGE =   0.0000000        MATRIX EXCHANGE =   0.0000000    
     PIPE RECHARGE =   0.0000000          PIPE RECHARGE =   0.0000000    
       PFP STORAGE =   0.0000000            PFP STORAGE =   0.0000000    

    CUMULATIVE OUT =   1.2697846              TOTAL OUT =  0.52907693E-02

          IN - OUT =   0.0000000               IN - OUT =   0.0000000    
     PERCENT ERROR =  0.00                PERCENT ERROR =  0.00


 
 ------------------------NODE WATER BUDGET-----------------------
  STRESS PERIOD           3  TIME STEP           4
 TOTAL SIMULATION TIME   240.000000000000     
 
 FLOW TO THE NODE IN M^3/S
 
 NODE     FIXED HEAD     RECHARGE        QWELL  MATRIX EXCH      STORAGE      TUBE_IN     TUBE_OUT         CADS     FHLQ(LQ)       CAUCHY   CAUCHY(LQ)          QLH     IN - OUT
    1   -0.78540E-03   0.0000       0.0000      0.78540E-03   0.0000       0.0000       0.0000       0.0000       0.0000       0.0000       0.0000       0.0000       0.0000    
    2   -0.82202E-03   0.0000       0.0000      0.82202E-03   0.0000       0.0000       0.0000       0.0000       0.0000       0.0000       0.0000       0.0000       0.0000    
    3   -0.13272E-02   0.0000       0.0000      0.13272E-02   0.0000       0.0000       0.0000       0.0000       0.0000       0.0000       0.0000       0.0000       0.0000    
    4   -0.23562E-02   0.0000       0.0000      0.23562E-02   0.0000       0.0000       0.0000       0.0000       0.0000       0.0000       0.0000       0.0000       0.0000    
     1 CALLS TO PCG ROUTINE FOR TIME STEP   4 IN STRESS PERIOD    3
     1 TOTAL ITERATIONS
 
 SOLVING FOR HEAD 
  LAMINAR PRECALCULATION
MODFLOW ITER.#  NEWTON-RAPHSON ITER.#   MAXIMUM NODE HEAD CHANGE
         1                   1                  0.0000000000


Solver Convergence Information:
                              HClose:  1.7763568E-15
                              RClose:  3.5527137E-15
                           L2-RClose:  7.1054274E-15
                         Rel-Vol-Err:  0.0
 
  LAMINAR PRECALCULATION
MODFLOW ITER.#  NEWTON-RAPHSON ITER.#   MAXIMUM NODE HEAD CHANGE
         1                   1                  0.0000000000

 NO OUTPUT CONTROL FOR STRESS PERIOD      3   TIME STEP     5
 
 
 CFPM1 CRITERION OF CONVERGENCE:     0.1000000E-05
 CFPM1 MAXIMUM NUMBER OF ITERATIONS:   100
 
 
 CFPM1 RESULTS +++++++++++++++++++++++++++++++++++++++++++++++++++++++
 
 STRESS PERIOD/TIME STEP           3           5
 
NUMBER OF NEWTON RHAPSON ITERATIONS:     1
 
 ------- RESULTS OF FLOW CALCULATION -------
 
NODE#  NODE HEAD[M]   MATRIX HEAD [M] EXCHANGE [M^3/S]      CAD STORAGE    CADS RECHARGE         PFPSFLOW  DIRECT RECHARGE            QWELL             FHLQ           CAUCHY        CAUCHY LQ              QLH             QFIX
    1  9.500    FIX      10.00000       -0.7853982E-03     0.000000         0.000000         0.000000         0.000000         0.000000         0.000000         0.000000         0.000000         0.000000       -0.7853982E-03
    2  9.500    FIX      9.761658       -0.8220224E-03     0.000000         0.000000         0.000000         0.000000         0.000000         0.000000         0.000000         0.000000         0.000000       -0.8220224E-03
    3  9.500    FIX      9.922446       -0.1327154E-02     0.000000         0.000000         0.000000         0.000000         0.000000         0.000000         0.000000         0.000000         0.000000       -0.1327154E-02
    4  9.500    FIX      11.00000       -0.2356194E-02     0.000000         0.000000         0.000000         0.000000         0.000000         0.000000         0.000000         0.000000         0.000000       -0.2356194E-02
 
TUBE  B  E  FLOW          Q [M^3/SEC]     DIAM.[M]        LEN.[M]        RE         RESIDENCE TIME [S]
    WARNING! TUBE    1 ACTIVE BUT NO FLOW
   1   1   2   LAMI.         0.00000        1.00000       10.00000        0.00000        0.00000
    WARNING! TUBE    2 ACTIVE BUT NO FLOW
   2   2   3   LAMI.         0.00000        1.00000       10.00000        0.00000        0.00000
    WARNING! TUBE    3 ACTIVE BUT NO FLOW
   3   3   4   LAMI.         0.00000        1.00000       10.00000        0.00000        0.00000
 

    BUDGET OF THE PIPE SYSTEM OF TIMESTEP    5 IN STRESS PERIOD    3
------------------------------------------------------------------------

  TOTAL SIMULATION TIME   250.000000000000      S
 
        CUMULATIVE VALUES (L**3)        RATES THIS TIME STEP (L**3/T)

            IN:                               IN:
     CONSTANT HEAD =   0.0000000          CONSTANT HEAD =   0.0000000    
   MATRIX EXCHANGE =   1.3226923        MATRIX EXCHANGE =  0.52907693E-02
     PIPE RECHARGE =   0.0000000          PIPE RECHARGE =   0.0000000    
       PFP STORAGE =   0.0000000            PFP STORAGE =   0.0000000    

     CUMULATIVE IN =   1.3226923               TOTAL IN =  0.52907693E-02

           OUT:                               OUT:
     CONSTANT HEAD =   1.3226923          CONSTANT HEAD =  0.52907693E-02
   MATRIX EXCHANGE =   0.0000000        MATRIX EXCHANGE =   0.0000000    
     PIPE RECHARGE =   0.0000000          PIPE RECHARGE =   0.0000000    
       PFP STORAGE =   0.0000000            PFP STORAGE =   0.0000000    

    CUMULATIVE OUT =   1.3226923              TOTAL OUT =  0.52907693E-02

          IN - OUT =   0.0000000               IN - OUT =   0.0000000    
     PERCENT ERROR =  0.00                PERCENT ERROR =  0.00


 
 ------------------------NODE WATER BUDGET-----------------------
  STRESS PERIOD           3  TIME STEP           5
 TOTAL SIMULATION TIME   250.000000000000     
 
 FLOW TO THE NODE IN M^3/S
 
 NODE     FIXED HEAD     RECHARGE        QWELL  MATRIX EXCH      STORAGE      TUBE_IN     TUBE_OUT         CADS     FHLQ(LQ)       CAUCHY   CAUCHY(LQ)          QLH     IN - OUT
    1   -0.78540E-03   0.0000       0.0000      0.78540E-03   0.0000       0.0000       0.0000       0.0000       0.0000       0.0000       0.0000       0.0000       0.0000    
    2   -0.82202E-03   0.0000       0.0000      0.82202E-03   0.0000       0.0000       0.0000       0.0000       0.0000       0.0000       0.0000       0.0000       0.0000    
    3   -0.13272E-02   0.0000       0.0000      0.13272E-02   0.0000       0.0000       0.0000       0.0000       0.0000       0.0000       0.0000       0.0000       0.0000    
    4   -0.23562E-02   0.0000       0.0000      0.23562E-02   0.0000       0.0000       0.0000       0.0000       0.0000       0.0000       0.0000       0.0000       0.0000    
     1 CALLS TO PCG ROUTINE FOR TIME STEP   5 IN STRESS PERIOD    3
     1 TOTAL ITERATIONS

 MAXIMUM HEAD CHANGE FOR EACH ITERATION (1 INDICATES THE FIRST INNER ITERATION):

    HEAD CHANGE    HEAD CHANGE    HEAD CHANGE    HEAD CHANGE    HEAD CHANGE 
   LAYER,ROW,COL  LAYER,ROW,COL  LAYER,ROW,COL  LAYER,ROW,COL  LAYER,ROW,COL
 ---------------------------------------------------------------------------
  1 -0.1062E-14
   (  1,  2,  3)

 MAXIMUM RESIDUAL FOR EACH ITERATION (1 INDICATES THE FIRST INNER ITERATION):

    RESIDUAL       RESIDUAL       RESIDUAL       RESIDUAL       RESIDUAL    
   LAYER,ROW,COL  LAYER,ROW,COL  LAYER,ROW,COL  LAYER,ROW,COL  LAYER,ROW,COL
 ---------------------------------------------------------------------------
  1 -0.8059E-20
   (  1,  3,  3)


 
 SOLVING FOR HEAD 
  LAMINAR PRECALCULATION
MODFLOW ITER.#  NEWTON-RAPHSON ITER.#   MAXIMUM NODE HEAD CHANGE
         1                   1                  0.0000000000


Solver Convergence Information:
                              HClose:  1.7763568E-15
                              RClose:  3.5527137E-15
                           L2-RClose:  7.1054545E-15
                         Rel-Vol-Err:  0.0
 
  LAMINAR PRECALCULATION
MODFLOW ITER.#  NEWTON-RAPHSON ITER.#   MAXIMUM NODE HEAD CHANGE
         1                   1                  0.0000000000

 NO OUTPUT CONTROL FOR STRESS PERIOD      3   TIME STEP     6
 
 
 CFPM1 CRITERION OF CONVERGENCE:     0.1000000E-05
 CFPM1 MAXIMUM NUMBER OF ITERATIONS:   100
 
 
 CFPM1 RESULTS +++++++++++++++++++++++++++++++++++++++++++++++++++++++
 
 STRESS PERIOD/TIME STEP           3           6
 
NUMBER OF NEWTON RHAPSON ITERATIONS:     1
 
 ------- RESULTS OF FLOW CALCULATION -------
 
NODE#  NODE HEAD[M]   MATRIX HEAD [M] EXCHANGE [M^3/S]      CAD STORAGE    CADS RECHARGE         PFPSFLOW  DIRECT RECHARGE            QWELL             FHLQ           CAUCHY        CAUCHY LQ              QLH             QFIX
    1  9.500    FIX      10.00000       -0.7853982E-03     0.000000         0.000000         0.000000         0.000000         0.000000         0.000000         0.000000         0.000000         0.000000       -0.7853982E-03
    2  9.500    FIX      9.761658       -0.8220224E-03     0.000000         0.000000         0.000000         0.000000         0.000000         0.000000         0.000000         0.000000         0.000000       -0.8220224E-03
    3  9.500    FIX      9.922446       -0.1327154E-02     0.000000         0.000000         0.000000         0.000000         0.000000         0.000000         0.000000         0.000000         0.000000       -0.1327154E-02
    4  9.500    FIX      11.00000       -0.2356194E-02     0.000000         0.000000         0.000000         0.000000         0.000000         0.000000         0.000000         0.000000         0.000000       -0.2356194E-02
 
TUBE  B  E  FLOW          Q [M^3/SEC]     DIAM.[M]        LEN.[M]        RE         RESIDENCE TIME [S]
    WARNING! TUBE    1 ACTIVE BUT NO FLOW
   1   1   2   LAMI.         0.00000        1.00000       10.00000        0.00000        0.00000
    WARNING! TUBE    2 ACTIVE BUT NO FLOW
   2   2   3   LAMI.         0.00000        1.00000       10.00000        0.00000        0.00000
    WARNING! TUBE    3 ACTIVE BUT NO FLOW
   3   3   4   LAMI.         0.00000        1.00000       10.00000        0.00000        0.00000
 

    BUDGET OF THE PIPE SYSTEM OF TIMESTEP    6 IN STRESS PERIOD    3
------------------------------------------------------------------------

  TOTAL SIMULATION TIME   260.000000000000      S
 
        CUMULATIVE VALUES (L**3)        RATES THIS TIME STEP (L**3/T)

            IN:                               IN:
     CONSTANT HEAD =   0.0000000          CONSTANT HEAD =   0.0000000    
   MATRIX EXCHANGE =   1.3756000        MATRIX EXCHANGE =  0.52907693E-02
     PIPE RECHARGE =   0.0000000          PIPE RECHARGE =   0.0000000    
       PFP STORAGE =   0.0000000            PFP STORAGE =   0.0000000    

     CUMULATIVE IN =   1.3756000               TOTAL IN =  0.52907693E-02

           OUT:                               OUT:
     CONSTANT HEAD =   1.3756000          CONSTANT HEAD =  0.52907693E-02
   MATRIX EXCHANGE =   0.0000000        MATRIX EXCHANGE =   0.0000000    
     PIPE RECHARGE =   0.0000000          PIPE RECHARGE =   0.0000000    
       PFP STORAGE =   0.0000000            PFP STORAGE =   0.0000000    

    CUMULATIVE OUT =   1.3756000              TOTAL OUT =  0.52907693E-02

          IN - OUT =   0.0000000               IN - OUT =   0.0000000    
     PERCENT ERROR =  0.00                PERCENT ERROR =  0.00


 
 ------------------------NODE WATER BUDGET-----------------------
  STRESS PERIOD           3  TIME STEP           6
 TOTAL SIMULATION TIME   260.000000000000     
 
 FLOW TO THE NODE IN M^3/S
 
 NODE     FIXED HEAD     RECHARGE        QWELL  MATRIX EXCH      STORAGE      TUBE_IN     TUBE_OUT         CADS     FHLQ(LQ)       CAUCHY   CAUCHY(LQ)          QLH     IN - OUT
    1   -0.78540E-03   0.0000       0.0000      0.78540E-03   0.0000       0.0000       0.0000       0.0000       0.0000       0.0000       0.0000       0.0000       0.0000    
    2   -0.82202E-03   0.0000       0.0000      0.82202E-03   0.0000       0.0000       0.0000       0.0000       0.0000       0.0000       0.0000       0.0000       0.0000    
    3   -0.13272E-02   0.0000       0.0000      0.13272E-02   0.0000       0.0000       0.0000       0.0000       0.0000       0.0000       0.0000       0.0000       0.0000    
    4   -0.23562E-02   0.0000       0.0000      0.23562E-02   0.0000       0.0000       0.0000       0.0000       0.0000       0.0000       0.0000       0.0000       0.0000    
     1 CALLS TO PCG ROUTINE FOR TIME STEP   6 IN STRESS PERIOD    3
     1 TOTAL ITERATIONS
 
 SOLVING FOR HEAD 
  LAMINAR PRECALCULATION
MODFLOW ITER.#  NEWTON-RAPHSON ITER.#   MAXIMUM NODE HEAD CHANGE
         1                   1                  0.0000000000


Solver Convergence Information:
                              HClose:  1.7763568E-15
                              RClose:  3.5527137E-15
                           L2-RClose:  7.1054409E-15
                         Rel-Vol-Err:  0.0
 
  LAMINAR PRECALCULATION
MODFLOW ITER.#  NEWTON-RAPHSON ITER.#   MAXIMUM NODE HEAD CHANGE
         1                   1                  0.0000000000

 NO OUTPUT CONTROL FOR STRESS PERIOD      3   TIME STEP     7
 
 
 CFPM1 CRITERION OF CONVERGENCE:     0.1000000E-05
 CFPM1 MAXIMUM NUMBER OF ITERATIONS:   100
 
 
 CFPM1 RESULTS +++++++++++++++++++++++++++++++++++++++++++++++++++++++
 
 STRESS PERIOD/TIME STEP           3           7
 
NUMBER OF NEWTON RHAPSON ITERATIONS:     1
 
 ------- RESULTS OF FLOW CALCULATION -------
 
NODE#  NODE HEAD[M]   MATRIX HEAD [M] EXCHANGE [M^3/S]      CAD STORAGE    CADS RECHARGE         PFPSFLOW  DIRECT RECHARGE            QWELL             FHLQ           CAUCHY        CAUCHY LQ              QLH             QFIX
    1  9.500    FIX      10.00000       -0.7853982E-03     0.000000         0.000000         0.000000         0.000000         0.000000         0.000000         0.000000         0.000000         0.000000       -0.7853982E-03
    2  9.500    FIX      9.761658       -0.8220224E-03     0.000000         0.000000         0.000000         0.000000         0.000000         0.000000         0.000000         0.000000         0.000000       -0.8220224E-03
    3  9.500    FIX      9.922446       -0.1327154E-02     0.000000         0.000000         0.000000         0.000000         0.000000         0.000000         0.000000         0.000000         0.000000       -0.1327154E-02
    4  9.500    FIX      11.00000       -0.2356194E-02     0.000000         0.000000         0.000000         0.000000         0.000000         0.000000         0.000000         0.000000         0.000000       -0.2356194E-02
 
TUBE  B  E  FLOW          Q [M^3/SEC]     DIAM.[M]        LEN.[M]        RE         RESIDENCE TIME [S]
    WARNING! TUBE    1 ACTIVE BUT NO FLOW
   1   1   2   LAMI.         0.00000        1.00000       10.00000        0.00000        0.00000
    WARNING! TUBE    2 ACTIVE BUT NO FLOW
   2   2   3   LAMI.         0.00000        1.00000       10.00000        0.00000        0.00000
    WARNING! TUBE    3 ACTIVE BUT NO FLOW
   3   3   4   LAMI.         0.00000        1.00000       10.00000        0.00000        0.00000
 

    BUDGET OF THE PIPE SYSTEM OF TIMESTEP    7 IN STRESS PERIOD    3
------------------------------------------------------------------------

  TOTAL SIMULATION TIME   270.000000000000      S
 
        CUMULATIVE VALUES (L**3)        RATES THIS TIME STEP (L**3/T)

            IN:                               IN:
     CONSTANT HEAD =   0.0000000          CONSTANT HEAD =   0.0000000    
   MATRIX EXCHANGE =   1.4285077        MATRIX EXCHANGE =  0.52907693E-02
     PIPE RECHARGE =   0.0000000          PIPE RECHARGE =   0.0000000    
       PFP STORAGE =   0.0000000            PFP STORAGE =   0.0000000    

     CUMULATIVE IN =   1.4285077               TOTAL IN =  0.52907693E-02

           OUT:                               OUT:
     CONSTANT HEAD =   1.4285077          CONSTANT HEAD =  0.52907693E-02
   MATRIX EXCHANGE =   0.0000000        MATRIX EXCHANGE =   0.0000000    
     PIPE RECHARGE =   0.0000000          PIPE RECHARGE =   0.0000000    
       PFP STORAGE =   0.0000000            PFP STORAGE =   0.0000000    

    CUMULATIVE OUT =   1.4285077              TOTAL OUT =  0.52907693E-02

          IN - OUT =   0.0000000               IN - OUT =   0.0000000    
     PERCENT ERROR =  0.00                PERCENT ERROR =  0.00


 
 ------------------------NODE WATER BUDGET-----------------------
  STRESS PERIOD           3  TIME STEP           7
 TOTAL SIMULATION TIME   270.000000000000     
 
 FLOW TO THE NODE IN M^3/S
 
 NODE     FIXED HEAD     RECHARGE        QWELL  MATRIX EXCH      STORAGE      TUBE_IN     TUBE_OUT         CADS     FHLQ(LQ)       CAUCHY   CAUCHY(LQ)          QLH     IN - OUT
    1   -0.78540E-03   0.0000       0.0000      0.78540E-03   0.0000       0.0000       0.0000       0.0000       0.0000       0.0000       0.0000       0.0000       0.0000    
    2   -0.82202E-03   0.0000       0.0000      0.82202E-03   0.0000       0.0000       0.0000       0.0000       0.0000       0.0000       0.0000       0.0000       0.0000    
    3   -0.13272E-02   0.0000       0.0000      0.13272E-02   0.0000       0.0000       0.0000       0.0000       0.0000       0.0000       0.0000       0.0000       0.0000    
    4   -0.23562E-02   0.0000       0.0000      0.23562E-02   0.0000       0.0000       0.0000       0.0000       0.0000       0.0000       0.0000       0.0000       0.0000    
     1 CALLS TO PCG ROUTINE FOR TIME STEP   7 IN STRESS PERIOD    3
     1 TOTAL ITERATIONS
 
 SOLVING FOR HEAD 
  LAMINAR PRECALCULATION
MODFLOW ITER.#  NEWTON-RAPHSON ITER.#   MAXIMUM NODE HEAD CHANGE
         1                   1                  0.0000000000


Solver Convergence Information:
                              HClose:  1.7763568E-15
                              RClose:  3.5527137E-15
                           L2-RClose:  7.1054274E-15
                         Rel-Vol-Err:  0.0
 
  LAMINAR PRECALCULATION
MODFLOW ITER.#  NEWTON-RAPHSON ITER.#   MAXIMUM NODE HEAD CHANGE
         1                   1                  0.0000000000

 NO OUTPUT CONTROL FOR STRESS PERIOD      3   TIME STEP     8
 
 
 CFPM1 CRITERION OF CONVERGENCE:     0.1000000E-05
 CFPM1 MAXIMUM NUMBER OF ITERATIONS:   100
 
 
 CFPM1 RESULTS +++++++++++++++++++++++++++++++++++++++++++++++++++++++
 
 STRESS PERIOD/TIME STEP           3           8
 
NUMBER OF NEWTON RHAPSON ITERATIONS:     1
 
 ------- RESULTS OF FLOW CALCULATION -------
 
NODE#  NODE HEAD[M]   MATRIX HEAD [M] EXCHANGE [M^3/S]      CAD STORAGE    CADS RECHARGE         PFPSFLOW  DIRECT RECHARGE            QWELL             FHLQ           CAUCHY        CAUCHY LQ              QLH             QFIX
    1  9.500    FIX      10.00000       -0.7853982E-03     0.000000         0.000000         0.000000         0.000000         0.000000         0.000000         0.000000         0.000000         0.000000       -0.7853982E-03
    2  9.500    FIX      9.761658       -0.8220224E-03     0.000000         0.000000         0.000000         0.000000         0.000000         0.000000         0.000000         0.000000         0.000000       -0.8220224E-03
    3  9.500    FIX      9.922446       -0.1327154E-02     0.000000         0.000000         0.000000         0.000000         0.000000         0.000000         0.000000         0.000000         0.000000       -0.1327154E-02
    4  9.500    FIX      11.00000       -0.2356194E-02     0.000000         0.000000         0.000000         0.000000         0.000000         0.000000         0.000000         0.000000         0.000000       -0.2356194E-02
 
TUBE  B  E  FLOW          Q [M^3/SEC]     DIAM.[M]        LEN.[M]        RE         RESIDENCE TIME [S]
    WARNING! TUBE    1 ACTIVE BUT NO FLOW
   1   1   2   LAMI.         0.00000        1.00000       10.00000        0.00000        0.00000
    WARNING! TUBE    2 ACTIVE BUT NO FLOW
   2   2   3   LAMI.         0.00000        1.00000       10.00000        0.00000        0.00000
    WARNING! TUBE    3 ACTIVE BUT NO FLOW
   3   3   4   LAMI.         0.00000        1.00000       10.00000        0.00000        0.00000
 

    BUDGET OF THE PIPE SYSTEM OF TIMESTEP    8 IN STRESS PERIOD    3
------------------------------------------------------------------------

  TOTAL SIMULATION TIME   280.000000000000      S
 
        CUMULATIVE VALUES (L**3)        RATES THIS TIME STEP (L**3/T)

            IN:                               IN:
     CONSTANT HEAD =   0.0000000          CONSTANT HEAD =   0.0000000    
   MATRIX EXCHANGE =   1.4814154        MATRIX EXCHANGE =  0.52907693E-02
     PIPE RECHARGE =   0.0000000          PIPE RECHARGE =   0.0000000    
       PFP STORAGE =   0.0000000            PFP STORAGE =   0.0000000    

     CUMULATIVE IN =   1.4814154               TOTAL IN =  0.52907693E-02

           OUT:                               OUT:
     CONSTANT HEAD =   1.4814154          CONSTANT HEAD =  0.52907693E-02
   MATRIX EXCHANGE =   0.0000000        MATRIX EXCHANGE =   0.0000000    
     PIPE RECHARGE =   0.0000000          PIPE RECHARGE =   0.0000000    
       PFP STORAGE =   0.0000000            PFP STORAGE =   0.0000000    

    CUMULATIVE OUT =   1.4814154              TOTAL OUT =  0.52907693E-02

          IN - OUT =   0.0000000               IN - OUT =   0.0000000    
     PERCENT ERROR =  0.00                PERCENT ERROR =  0.00


 
 ------------------------NODE WATER BUDGET-----------------------
  STRESS PERIOD           3  TIME STEP           8
 TOTAL SIMULATION TIME   280.000000000000     
 
 FLOW TO THE NODE IN M^3/S
 
 NODE     FIXED HEAD     RECHARGE        QWELL  MATRIX EXCH      STORAGE      TUBE_IN     TUBE_OUT         CADS     FHLQ(LQ)       CAUCHY   CAUCHY(LQ)          QLH     IN - OUT
    1   -0.78540E-03   0.0000       0.0000      0.78540E-03   0.0000       0.0000       0.0000       0.0000       0.0000       0.0000       0.0000       0.0000       0.0000    
    2   -0.82202E-03   0.0000       0.0000      0.82202E-03   0.0000       0.0000       0.0000       0.0000       0.0000       0.0000       0.0000       0.0000       0.0000    
    3   -0.13272E-02   0.0000       0.0000      0.13272E-02   0.0000       0.0000       0.0000       0.0000       0.0000       0.0000       0.0000       0.0000       0.0000    
    4   -0.23562E-02   0.0000       0.0000      0.23562E-02   0.0000       0.0000       0.0000       0.0000       0.0000       0.0000       0.0000       0.0000       0.0000    
     1 CALLS TO PCG ROUTINE FOR TIME STEP   8 IN STRESS PERIOD    3
     1 TOTAL ITERATIONS
 
 SOLVING FOR HEAD 
  LAMINAR PRECALCULATION
MODFLOW ITER.#  NEWTON-RAPHSON ITER.#   MAXIMUM NODE HEAD CHANGE
         1                   1                  0.0000000000


Solver Convergence Information:
                              HClose:  1.7763568E-15
                              RClose:  3.5527137E-15
                           L2-RClose:  7.1054545E-15
                         Rel-Vol-Err:  0.0
 
  LAMINAR PRECALCULATION
MODFLOW ITER.#  NEWTON-RAPHSON ITER.#   MAXIMUM NODE HEAD CHANGE
         1                   1                  0.0000000000

 NO OUTPUT CONTROL FOR STRESS PERIOD      3   TIME STEP     9
 
 
 CFPM1 CRITERION OF CONVERGENCE:     0.1000000E-05
 CFPM1 MAXIMUM NUMBER OF ITERATIONS:   100
 
 
 CFPM1 RESULTS +++++++++++++++++++++++++++++++++++++++++++++++++++++++
 
 STRESS PERIOD/TIME STEP           3           9
 
NUMBER OF NEWTON RHAPSON ITERATIONS:     1
 
 ------- RESULTS OF FLOW CALCULATION -------
 
NODE#  NODE HEAD[M]   MATRIX HEAD [M] EXCHANGE [M^3/S]      CAD STORAGE    CADS RECHARGE         PFPSFLOW  DIRECT RECHARGE            QWELL             FHLQ           CAUCHY        CAUCHY LQ              QLH             QFIX
    1  9.500    FIX      10.00000       -0.7853982E-03     0.000000         0.000000         0.000000         0.000000         0.000000         0.000000         0.000000         0.000000         0.000000       -0.7853982E-03
    2  9.500    FIX      9.761658       -0.8220224E-03     0.000000         0.000000         0.000000         0.000000         0.000000         0.000000         0.000000         0.000000         0.000000       -0.8220224E-03
    3  9.500    FIX      9.922446       -0.1327154E-02     0.000000         0.000000         0.000000         0.000000         0.000000         0.000000         0.000000         0.000000         0.000000       -0.1327154E-02
    4  9.500    FIX      11.00000       -0.2356194E-02     0.000000         0.000000         0.000000         0.000000         0.000000         0.000000         0.000000         0.000000         0.000000       -0.2356194E-02
 
TUBE  B  E  FLOW          Q [M^3/SEC]     DIAM.[M]        LEN.[M]        RE         RESIDENCE TIME [S]
    WARNING! TUBE    1 ACTIVE BUT NO FLOW
   1   1   2   LAMI.         0.00000        1.00000       10.00000        0.00000        0.00000
    WARNING! TUBE    2 ACTIVE BUT NO FLOW
   2   2   3   LAMI.         0.00000        1.00000       10.00000        0.00000        0.00000
    WARNING! TUBE    3 ACTIVE BUT NO FLOW
   3   3   4   LAMI.         0.00000        1.00000       10.00000        0.00000        0.00000
 

    BUDGET OF THE PIPE SYSTEM OF TIMESTEP    9 IN STRESS PERIOD    3
------------------------------------------------------------------------

  TOTAL SIMULATION TIME   290.000000000000      S
 
        CUMULATIVE VALUES (L**3)        RATES THIS TIME STEP (L**3/T)

            IN:                               IN:
     CONSTANT HEAD =   0.0000000          CONSTANT HEAD =   0.0000000    
   MATRIX EXCHANGE =   1.5343231        MATRIX EXCHANGE =  0.52907693E-02
     PIPE RECHARGE =   0.0000000          PIPE RECHARGE =   0.0000000    
       PFP STORAGE =   0.0000000            PFP STORAGE =   0.0000000    

     CUMULATIVE IN =   1.5343231               TOTAL IN =  0.52907693E-02

           OUT:                               OUT:
     CONSTANT HEAD =   1.5343231          CONSTANT HEAD =  0.52907693E-02
   MATRIX EXCHANGE =   0.0000000        MATRIX EXCHANGE =   0.0000000    
     PIPE RECHARGE =   0.0000000          PIPE RECHARGE =   0.0000000    
       PFP STORAGE =   0.0000000            PFP STORAGE =   0.0000000    

    CUMULATIVE OUT =   1.5343231              TOTAL OUT =  0.52907693E-02

          IN - OUT =   0.0000000               IN - OUT =   0.0000000    
     PERCENT ERROR =  0.00                PERCENT ERROR =  0.00


 
 ------------------------NODE WATER BUDGET-----------------------
  STRESS PERIOD           3  TIME STEP           9
 TOTAL SIMULATION TIME   290.000000000000     
 
 FLOW TO THE NODE IN M^3/S
 
 NODE     FIXED HEAD     RECHARGE        QWELL  MATRIX EXCH      STORAGE      TUBE_IN     TUBE_OUT         CADS     FHLQ(LQ)       CAUCHY   CAUCHY(LQ)          QLH     IN - OUT
    1   -0.78540E-03   0.0000       0.0000      0.78540E-03   0.0000       0.0000       0.0000       0.0000       0.0000       0.0000       0.0000       0.0000       0.0000    
    2   -0.82202E-03   0.0000       0.0000      0.82202E-03   0.0000       0.0000       0.0000       0.0000       0.0000       0.0000       0.0000       0.0000       0.0000    
    3   -0.13272E-02   0.0000       0.0000      0.13272E-02   0.0000       0.0000       0.0000       0.0000       0.0000       0.0000       0.0000       0.0000       0.0000    
    4   -0.23562E-02   0.0000       0.0000      0.23562E-02   0.0000       0.0000       0.0000       0.0000       0.0000       0.0000       0.0000       0.0000       0.0000    
     1 CALLS TO PCG ROUTINE FOR TIME STEP   9 IN STRESS PERIOD    3
     1 TOTAL ITERATIONS
 
 SOLVING FOR HEAD 
  LAMINAR PRECALCULATION
MODFLOW ITER.#  NEWTON-RAPHSON ITER.#   MAXIMUM NODE HEAD CHANGE
         1                   1                  0.0000000000


Solver Convergence Information:
                              HClose:  1.7763568E-15
                              RClose:  3.5527137E-15
                           L2-RClose:  7.1054409E-15
                         Rel-Vol-Err:  0.0
 
  LAMINAR PRECALCULATION
MODFLOW ITER.#  NEWTON-RAPHSON ITER.#   MAXIMUM NODE HEAD CHANGE
         1                   1                  0.0000000000

 OUTPUT CONTROL FOR STRESS PERIOD      3   TIME STEP    10
    PRINT HEAD FOR ALL LAYERS
    SAVE HEAD FOR ALL LAYERS
    SAVE BUDGET
 UBDSV1 SAVING "         STORAGE" ON UNIT 50 AT TIME STEP 10, STRESS PERIOD 3
 UBDSV2 SAVING "   CONSTANT HEAD" ON UNIT 50 AT TIME STEP 10, STRESS PERIOD 3
 UBDSV1 SAVING "FLOW RIGHT FACE " ON UNIT 50 AT TIME STEP 10, STRESS PERIOD 3
 UBDSV1 SAVING "FLOW FRONT FACE " ON UNIT 50 AT TIME STEP 10, STRESS PERIOD 3
 
 
 CFPM1 CRITERION OF CONVERGENCE:     0.1000000E-05
 CFPM1 MAXIMUM NUMBER OF ITERATIONS:   100
 
 
 CFPM1 RESULTS +++++++++++++++++++++++++++++++++++++++++++++++++++++++
 
 STRESS PERIOD/TIME STEP           3          10
 
NUMBER OF NEWTON RHAPSON ITERATIONS:     1
 
 ------- RESULTS OF FLOW CALCULATION -------
 
NODE#  NODE HEAD[M]   MATRIX HEAD [M] EXCHANGE [M^3/S]      CAD STORAGE    CADS RECHARGE         PFPSFLOW  DIRECT RECHARGE            QWELL             FHLQ           CAUCHY        CAUCHY LQ              QLH             QFIX
    1  9.500    FIX      10.00000       -0.7853982E-03     0.000000         0.000000         0.000000         0.000000         0.000000         0.000000         0.000000         0.000000         0.000000       -0.7853982E-03
    2  9.500    FIX      9.761658       -0.8220224E-03     0.000000         0.000000         0.000000         0.000000         0.000000         0.000000         0.000000         0.000000         0.000000       -0.8220224E-03
    3  9.500    FIX      9.922446       -0.1327154E-02     0.000000         0.000000         0.000000         0.000000         0.000000         0.000000         0.000000         0.000000         0.000000       -0.1327154E-02
    4  9.500    FIX      11.00000       -0.2356194E-02     0.000000         0.000000         0.000000         0.000000         0.000000         0.000000         0.000000         0.000000         0.000000       -0.2356194E-02
 
TUBE  B  E  FLOW          Q [M^3/SEC]     DIAM.[M]        LEN.[M]        RE         RESIDENCE TIME [S]
    WARNING! TUBE    1 ACTIVE BUT NO FLOW
   1   1   2   LAMI.         0.00000        1.00000       10.00000        0.00000        0.00000
    WARNING! TUBE    2 ACTIVE BUT NO FLOW
   2   2   3   LAMI.         0.00000        1.00000       10.00000        0.00000        0.00000
    WARNING! TUBE    3 ACTIVE BUT NO FLOW
   3   3   4   LAMI.         0.00000        1.00000       10.00000        0.00000        0.00000
 

    BUDGET OF THE PIPE SYSTEM OF TIMESTEP   10 IN STRESS PERIOD    3
------------------------------------------------------------------------

  TOTAL SIMULATION TIME   300.000000000000      S
 
        CUMULATIVE VALUES (L**3)        RATES THIS TIME STEP (L**3/T)

            IN:                               IN:
     CONSTANT HEAD =   0.0000000          CONSTANT HEAD =   0.0000000    
   MATRIX EXCHANGE =   1.5872308        MATRIX EXCHANGE =  0.52907693E-02
     PIPE RECHARGE =   0.0000000          PIPE RECHARGE =   0.0000000    
       PFP STORAGE =   0.0000000            PFP STORAGE =   0.0000000    

     CUMULATIVE IN =   1.5872308               TOTAL IN =  0.52907693E-02

           OUT:                               OUT:
     CONSTANT HEAD =   1.5872308          CONSTANT HEAD =  0.52907693E-02
   MATRIX EXCHANGE =   0.0000000        MATRIX EXCHANGE =   0.0000000    
     PIPE RECHARGE =   0.0000000          PIPE RECHARGE =   0.0000000    
       PFP STORAGE =   0.0000000            PFP STORAGE =   0.0000000    

    CUMULATIVE OUT =   1.5872308              TOTAL OUT =  0.52907693E-02

          IN - OUT =   0.0000000               IN - OUT =   0.0000000    
     PERCENT ERROR =  0.00                PERCENT ERROR =  0.00


 
 ------------------------NODE WATER BUDGET-----------------------
  STRESS PERIOD           3  TIME STEP          10
 TOTAL SIMULATION TIME   300.000000000000     
 
 FLOW TO THE NODE IN M^3/S
 
 NODE     FIXED HEAD     RECHARGE        QWELL  MATRIX EXCH      STORAGE      TUBE_IN     TUBE_OUT         CADS     FHLQ(LQ)       CAUCHY   CAUCHY(LQ)          QLH     IN - OUT
    1   -0.78540E-03   0.0000       0.0000      0.78540E-03   0.0000       0.0000       0.0000       0.0000       0.0000       0.0000       0.0000       0.0000       0.0000    
    2   -0.82202E-03   0.0000       0.0000      0.82202E-03   0.0000       0.0000       0.0000       0.0000       0.0000       0.0000       0.0000       0.0000       0.0000    
    3   -0.13272E-02   0.0000       0.0000      0.13272E-02   0.0000       0.0000       0.0000       0.0000       0.0000       0.0000       0.0000       0.0000       0.0000    
    4   -0.23562E-02   0.0000       0.0000      0.23562E-02   0.0000       0.0000       0.0000       0.0000       0.0000       0.0000       0.0000       0.0000       0.0000    
     1 CALLS TO PCG ROUTINE FOR TIME STEP  10 IN STRESS PERIOD    3
     1 TOTAL ITERATIONS

 MAXIMUM HEAD CHANGE FOR EACH ITERATION (1 INDICATES THE FIRST INNER ITERATION):

    HEAD CHANGE    HEAD CHANGE    HEAD CHANGE    HEAD CHANGE    HEAD CHANGE 
   LAYER,ROW,COL  LAYER,ROW,COL  LAYER,ROW,COL  LAYER,ROW,COL  LAYER,ROW,COL
 ---------------------------------------------------------------------------
  1  0.2013E-14
   (  1,  3,  3)

 MAXIMUM RESIDUAL FOR EACH ITERATION (1 INDICATES THE FIRST INNER ITERATION):

    RESIDUAL       RESIDUAL       RESIDUAL       RESIDUAL       RESIDUAL    
   LAYER,ROW,COL  LAYER,ROW,COL  LAYER,ROW,COL  LAYER,ROW,COL  LAYER,ROW,COL
 ---------------------------------------------------------------------------
  1 -0.1452E-18
   (  1,  2,  4)


1
              HEAD IN LAYER   1 AT END OF TIME STEP  10 IN STRESS PERIOD    3
  ---------------------------------------------------------------------------

          1         2         3         4         5
 ..................................................
   1    10.       10.       10.       10.       10.    
   2    10.       10.       9.8       10.       10.    
   3    11.       10.       9.9       10.       11.    
   4    11.       11.       11.       11.       11.    

 HEAD WILL BE SAVED ON UNIT   51 AT END OF TIME STEP    10 IN STRESS PERIOD      3



  -------------------------------------------------------------------------------------
  VOLUMETRIC BUDGET FOR ENTIRE MODEL AT END OF TIME STEP   10 IN STRESS PERIOD      3
  -------------------------------------------------------------------------------------

     CUMULATIVE VOLUMES      L**3       RATES FOR THIS TIME STEP      L**3/T
     ------------------                 ------------------------

           IN:                                      IN:
           ---                                      ---
             STORAGE =       6.5947E-16               STORAGE =           0.0000
       CONSTANT HEAD =           1.6404         CONSTANT HEAD =       5.4679E-03
               PIPES =           0.0000                 PIPES =           0.0000

            TOTAL IN =           1.6404              TOTAL IN =       5.4679E-03

          OUT:                                     OUT:
          ----                                     ----
             STORAGE =       1.4962E-16               STORAGE =       1.2468E-18
       CONSTANT HEAD =       5.3143E-02         CONSTANT HEAD =       1.7714E-04
               PIPES =           1.5872                 PIPES =       5.2908E-03

           TOTAL OUT =           1.6404             TOTAL OUT =       5.4679E-03

            IN - OUT =      -1.3271E-09              IN - OUT =       1.3531E-16

 PERCENT DISCREPANCY =          -0.00     PERCENT DISCREPANCY =           0.00


          TIME SUMMARY AT END OF TIME STEP    10 IN STRESS PERIOD      3
                    SECONDS     MINUTES      HOURS       DAYS        YEARS
                    -----------------------------------------------------------
   TIME STEP LENGTH  10.000     0.16667     2.77778E-03 1.15741E-04 3.16881E-07
 STRESS PERIOD TIME  100.00      1.6667     2.77778E-02 1.15741E-03 3.16881E-06
         TOTAL TIME  300.00      5.0000     8.33333E-02 3.47222E-03 9.50643E-06
 
1
                            STRESS PERIOD NO.      4, LENGTH =   100.0000    
                            -----------------------------------------------

                              NUMBER OF TIME STEPS =    10

                               MULTIPLIER FOR DELT =     1.000

                            INITIAL TIME STEP SIZE =   10.00000    
 
 SOLVING FOR HEAD 
  LAMINAR PRECALCULATION
MODFLOW ITER.#  NEWTON-RAPHSON ITER.#   MAXIMUM NODE HEAD CHANGE
         1                   1                  0.0000000000


Solver Convergence Information:
                              HClose:  1.7763568E-15
                              RClose:  3.5527137E-15
                           L2-RClose:  7.1054274E-15
                         Rel-Vol-Err:  0.0
 
  LAMINAR PRECALCULATION
MODFLOW ITER.#  NEWTON-RAPHSON ITER.#   MAXIMUM NODE HEAD CHANGE
         1                   1                  0.0000000000

 NO OUTPUT CONTROL FOR STRESS PERIOD      4   TIME STEP     1
 
 
 CFPM1 CRITERION OF CONVERGENCE:     0.1000000E-05
 CFPM1 MAXIMUM NUMBER OF ITERATIONS:   100
 
 
 CFPM1 RESULTS +++++++++++++++++++++++++++++++++++++++++++++++++++++++
 
 STRESS PERIOD/TIME STEP           4           1
 
NUMBER OF NEWTON RHAPSON ITERATIONS:     1
 
 ------- RESULTS OF FLOW CALCULATION -------
 
NODE#  NODE HEAD[M]   MATRIX HEAD [M] EXCHANGE [M^3/S]      CAD STORAGE    CADS RECHARGE         PFPSFLOW  DIRECT RECHARGE            QWELL             FHLQ           CAUCHY        CAUCHY LQ              QLH             QFIX
    1  9.500    FIX      10.00000       -0.7853982E-03     0.000000         0.000000         0.000000         0.000000         0.000000         0.000000         0.000000         0.000000         0.000000       -0.7853982E-03
    2  9.500    FIX      9.761658       -0.8220224E-03     0.000000         0.000000         0.000000         0.000000         0.000000         0.000000         0.000000         0.000000         0.000000       -0.8220224E-03
    3  9.500    FIX      9.922446       -0.1327154E-02     0.000000         0.000000         0.000000         0.000000         0.000000         0.000000         0.000000         0.000000         0.000000       -0.1327154E-02
    4  9.500    FIX      11.00000       -0.2356194E-02     0.000000         0.000000         0.000000         0.000000         0.000000         0.000000         0.000000         0.000000         0.000000       -0.2356194E-02
 
TUBE  B  E  FLOW          Q [M^3/SEC]     DIAM.[M]        LEN.[M]        RE         RESIDENCE TIME [S]
    WARNING! TUBE    1 ACTIVE BUT NO FLOW
   1   1   2   LAMI.         0.00000        1.00000       10.00000        0.00000        0.00000
    WARNING! TUBE    2 ACTIVE BUT NO FLOW
   2   2   3   LAMI.         0.00000        1.00000       10.00000        0.00000        0.00000
    WARNING! TUBE    3 ACTIVE BUT NO FLOW
   3   3   4   LAMI.         0.00000        1.00000       10.00000        0.00000        0.00000
 

    BUDGET OF THE PIPE SYSTEM OF TIMESTEP    1 IN STRESS PERIOD    4
------------------------------------------------------------------------

  TOTAL SIMULATION TIME   310.000000000000      S
 
        CUMULATIVE VALUES (L**3)        RATES THIS TIME STEP (L**3/T)

            IN:                               IN:
     CONSTANT HEAD =   0.0000000          CONSTANT HEAD =   0.0000000    
   MATRIX EXCHANGE =   1.6401385        MATRIX EXCHANGE =  0.52907693E-02
     PIPE RECHARGE =   0.0000000          PIPE RECHARGE =   0.0000000    
       PFP STORAGE =   0.0000000            PFP STORAGE =   0.0000000    

     CUMULATIVE IN =   1.6401385               TOTAL IN =  0.52907693E-02

           OUT:                               OUT:
     CONSTANT HEAD =   1.6401385          CONSTANT HEAD =  0.52907693E-02
   MATRIX EXCHANGE =   0.0000000        MATRIX EXCHANGE =   0.0000000    
     PIPE RECHARGE =   0.0000000          PIPE RECHARGE =   0.0000000    
       PFP STORAGE =   0.0000000            PFP STORAGE =   0.0000000    

    CUMULATIVE OUT =   1.6401385              TOTAL OUT =  0.52907693E-02

          IN - OUT =   0.0000000               IN - OUT =   0.0000000    
     PERCENT ERROR =  0.00                PERCENT ERROR =  0.00


 
 ------------------------NODE WATER BUDGET-----------------------
  STRESS PERIOD           4  TIME STEP           1
 TOTAL SIMULATION TIME   310.000000000000     
 
 FLOW TO THE NODE IN M^3/S
 
 NODE     FIXED HEAD     RECHARGE        QWELL  MATRIX EXCH      STORAGE      TUBE_IN     TUBE_OUT         CADS     FHLQ(LQ)       CAUCHY   CAUCHY(LQ)          QLH     IN - OUT
    1   -0.78540E-03   0.0000       0.0000      0.78540E-03   0.0000       0.0000       0.0000       0.0000       0.0000       0.0000       0.0000       0.0000       0.0000    
    2   -0.82202E-03   0.0000       0.0000      0.82202E-03   0.0000       0.0000       0.0000       0.0000       0.0000       0.0000       0.0000       0.0000       0.0000    
    3   -0.13272E-02   0.0000       0.0000      0.13272E-02   0.0000       0.0000       0.0000       0.0000       0.0000       0.0000       0.0000       0.0000       0.0000    
    4   -0.23562E-02   0.0000       0.0000      0.23562E-02   0.0000       0.0000       0.0000       0.0000       0.0000       0.0000       0.0000       0.0000       0.0000    


     1 CALLS TO PCG ROUTINE FOR TIME STEP   1 IN STRESS PERIOD    4
     1 TOTAL ITERATIONS
 
 SOLVING FOR HEAD 
  LAMINAR PRECALCULATION
MODFLOW ITER.#  NEWTON-RAPHSON ITER.#   MAXIMUM NODE HEAD CHANGE
         1                   1                  0.0000000000


Solver Convergence Information:
                              HClose:  1.7763568E-15
                              RClose:  3.5527137E-15
                           L2-RClose:  7.1054545E-15
                         Rel-Vol-Err:  0.0
 
  LAMINAR PRECALCULATION
MODFLOW ITER.#  NEWTON-RAPHSON ITER.#   MAXIMUM NODE HEAD CHANGE
         1                   1                  0.0000000000

 NO OUTPUT CONTROL FOR STRESS PERIOD      4   TIME STEP     2
 
 
 CFPM1 CRITERION OF CONVERGENCE:     0.1000000E-05
 CFPM1 MAXIMUM NUMBER OF ITERATIONS:   100
 
 
 CFPM1 RESULTS +++++++++++++++++++++++++++++++++++++++++++++++++++++++
 
 STRESS PERIOD/TIME STEP           4           2
 
NUMBER OF NEWTON RHAPSON ITERATIONS:     1
 
 ------- RESULTS OF FLOW CALCULATION -------
 
NODE#  NODE HEAD[M]   MATRIX HEAD [M] EXCHANGE [M^3/S]      CAD STORAGE    CADS RECHARGE         PFPSFLOW  DIRECT RECHARGE            QWELL             FHLQ           CAUCHY        CAUCHY LQ              QLH             QFIX
    1  9.500    FIX      10.00000       -0.7853982E-03     0.000000         0.000000         0.000000         0.000000         0.000000         0.000000         0.000000         0.000000         0.000000       -0.7853982E-03
    2  9.500    FIX      9.761658       -0.8220224E-03     0.000000         0.000000         0.000000         0.000000         0.000000         0.000000         0.000000         0.000000         0.000000       -0.8220224E-03
    3  9.500    FIX      9.922446       -0.1327154E-02     0.000000         0.000000         0.000000         0.000000         0.000000         0.000000         0.000000         0.000000         0.000000       -0.1327154E-02
    4  9.500    FIX      11.00000       -0.2356194E-02     0.000000         0.000000         0.000000         0.000000         0.000000         0.000000         0.000000         0.000000         0.000000       -0.2356194E-02
 
TUBE  B  E  FLOW          Q [M^3/SEC]     DIAM.[M]        LEN.[M]        RE         RESIDENCE TIME [S]
    WARNING! TUBE    1 ACTIVE BUT NO FLOW
   1   1   2   LAMI.         0.00000        1.00000       10.00000        0.00000        0.00000
    WARNING! TUBE    2 ACTIVE BUT NO FLOW
   2   2   3   LAMI.         0.00000        1.00000       10.00000        0.00000        0.00000
    WARNING! TUBE    3 ACTIVE BUT NO FLOW
   3   3   4   LAMI.         0.00000        1.00000       10.00000        0.00000        0.00000
 

    BUDGET OF THE PIPE SYSTEM OF TIMESTEP    2 IN STRESS PERIOD    4
------------------------------------------------------------------------

  TOTAL SIMULATION TIME   320.000000000000      S
 
        CUMULATIVE VALUES (L**3)        RATES THIS TIME STEP (L**3/T)

            IN:                               IN:
     CONSTANT HEAD =   0.0000000          CONSTANT HEAD =   0.0000000    
   MATRIX EXCHANGE =   1.6930462        MATRIX EXCHANGE =  0.52907693E-02
     PIPE RECHARGE =   0.0000000          PIPE RECHARGE =   0.0000000    
       PFP STORAGE =   0.0000000            PFP STORAGE =   0.0000000    

     CUMULATIVE IN =   1.6930462               TOTAL IN =  0.52907693E-02

           OUT:                               OUT:
     CONSTANT HEAD =   1.6930462          CONSTANT HEAD =  0.52907693E-02
   MATRIX EXCHANGE =   0.0000000        MATRIX EXCHANGE =   0.0000000    
     PIPE RECHARGE =   0.0000000          PIPE RECHARGE =   0.0000000    
       PFP STORAGE =   0.0000000            PFP STORAGE =   0.0000000    

    CUMULATIVE OUT =   1.6930462              TOTAL OUT =  0.52907693E-02

          IN - OUT =   0.0000000               IN - OUT =   0.0000000    
     PERCENT ERROR =  0.00                PERCENT ERROR =  0.00


 
 ------------------------NODE WATER BUDGET-----------------------
  STRESS PERIOD           4  TIME STEP           2
 TOTAL SIMULATION TIME   320.000000000000     
 
 FLOW TO THE NODE IN M^3/S
 
 NODE     FIXED HEAD     RECHARGE        QWELL  MATRIX EXCH      STORAGE      TUBE_IN     TUBE_OUT         CADS     FHLQ(LQ)       CAUCHY   CAUCHY(LQ)          QLH     IN - OUT
    1   -0.78540E-03   0.0000       0.0000      0.78540E-03   0.0000       0.0000       0.0000       0.0000       0.0000       0.0000       0.0000       0.0000       0.0000    
    2   -0.82202E-03   0.0000       0.0000      0.82202E-03   0.0000       0.0000       0.0000       0.0000       0.0000       0.0000       0.0000       0.0000       0.0000    
    3   -0.13272E-02   0.0000       0.0000      0.13272E-02   0.0000       0.0000       0.0000       0.0000       0.0000       0.0000       0.0000       0.0000       0.0000    
    4   -0.23562E-02   0.0000       0.0000      0.23562E-02   0.0000       0.0000       0.0000       0.0000       0.0000       0.0000       0.0000       0.0000       0.0000    
     1 CALLS TO PCG ROUTINE FOR TIME STEP   2 IN STRESS PERIOD    4
     1 TOTAL ITERATIONS
 
 SOLVING FOR HEAD 
  LAMINAR PRECALCULATION
MODFLOW ITER.#  NEWTON-RAPHSON ITER.#   MAXIMUM NODE HEAD CHANGE
         1                   1                  0.0000000000


Solver Convergence Information:
                              HClose:  1.7763568E-15
                              RClose:  3.5527137E-15
                           L2-RClose:  7.1054409E-15
                         Rel-Vol-Err:  0.0
 
  LAMINAR PRECALCULATION
MODFLOW ITER.#  NEWTON-RAPHSON ITER.#   MAXIMUM NODE HEAD CHANGE
         1                   1                  0.0000000000

 NO OUTPUT CONTROL FOR STRESS PERIOD      4   TIME STEP     3
 
 
 CFPM1 CRITERION OF CONVERGENCE:     0.1000000E-05
 CFPM1 MAXIMUM NUMBER OF ITERATIONS:   100
 
 
 CFPM1 RESULTS +++++++++++++++++++++++++++++++++++++++++++++++++++++++
 
 STRESS PERIOD/TIME STEP           4           3
 
NUMBER OF NEWTON RHAPSON ITERATIONS:     1
 
 ------- RESULTS OF FLOW CALCULATION -------
 
NODE#  NODE HEAD[M]   MATRIX HEAD [M] EXCHANGE [M^3/S]      CAD STORAGE    CADS RECHARGE         PFPSFLOW  DIRECT RECHARGE            QWELL             FHLQ           CAUCHY        CAUCHY LQ              QLH             QFIX
    1  9.500    FIX      10.00000       -0.7853982E-03     0.000000         0.000000         0.000000         0.000000         0.000000         0.000000         0.000000         0.000000         0.000000       -0.7853982E-03
    2  9.500    FIX      9.761658       -0.8220224E-03     0.000000         0.000000         0.000000         0.000000         0.000000         0.000000         0.000000         0.000000         0.000000       -0.8220224E-03
    3  9.500    FIX      9.922446       -0.1327154E-02     0.000000         0.000000         0.000000         0.000000         0.000000         0.000000         0.000000         0.000000         0.000000       -0.1327154E-02
    4  9.500    FIX      11.00000       -0.2356194E-02     0.000000         0.000000         0.000000         0.000000         0.000000         0.000000         0.000000         0.000000         0.000000       -0.2356194E-02
 
TUBE  B  E  FLOW          Q [M^3/SEC]     DIAM.[M]        LEN.[M]        RE         RESIDENCE TIME [S]
    WARNING! TUBE    1 ACTIVE BUT NO FLOW
   1   1   2   LAMI.         0.00000        1.00000       10.00000        0.00000        0.00000
    WARNING! TUBE    2 ACTIVE BUT NO FLOW
   2   2   3   LAMI.         0.00000        1.00000       10.00000        0.00000        0.00000
    WARNING! TUBE    3 ACTIVE BUT NO FLOW
   3   3   4   LAMI.         0.00000        1.00000       10.00000        0.00000        0.00000
 

    BUDGET OF THE PIPE SYSTEM OF TIMESTEP    3 IN STRESS PERIOD    4
------------------------------------------------------------------------

  TOTAL SIMULATION TIME   330.000000000000      S
 
        CUMULATIVE VALUES (L**3)        RATES THIS TIME STEP (L**3/T)

            IN:                               IN:
     CONSTANT HEAD =   0.0000000          CONSTANT HEAD =   0.0000000    
   MATRIX EXCHANGE =   1.7459539        MATRIX EXCHANGE =  0.52907693E-02
     PIPE RECHARGE =   0.0000000          PIPE RECHARGE =   0.0000000    
       PFP STORAGE =   0.0000000            PFP STORAGE =   0.0000000    

     CUMULATIVE IN =   1.7459539               TOTAL IN =  0.52907693E-02

           OUT:                               OUT:
     CONSTANT HEAD =   1.7459539          CONSTANT HEAD =  0.52907693E-02
   MATRIX EXCHANGE =   0.0000000        MATRIX EXCHANGE =   0.0000000    
     PIPE RECHARGE =   0.0000000          PIPE RECHARGE =   0.0000000    
       PFP STORAGE =   0.0000000            PFP STORAGE =   0.0000000    

    CUMULATIVE OUT =   1.7459539              TOTAL OUT =  0.52907693E-02

          IN - OUT =   0.0000000               IN - OUT =   0.0000000    
     PERCENT ERROR =  0.00                PERCENT ERROR =  0.00


 
 ------------------------NODE WATER BUDGET-----------------------
  STRESS PERIOD           4  TIME STEP           3
 TOTAL SIMULATION TIME   330.000000000000     
 
 FLOW TO THE NODE IN M^3/S
 
 NODE     FIXED HEAD     RECHARGE        QWELL  MATRIX EXCH      STORAGE      TUBE_IN     TUBE_OUT         CADS     FHLQ(LQ)       CAUCHY   CAUCHY(LQ)          QLH     IN - OUT
    1   -0.78540E-03   0.0000       0.0000      0.78540E-03   0.0000       0.0000       0.0000       0.0000       0.0000       0.0000       0.0000       0.0000       0.0000    
    2   -0.82202E-03   0.0000       0.0000      0.82202E-03   0.0000       0.0000       0.0000       0.0000       0.0000       0.0000       0.0000       0.0000       0.0000    
    3   -0.13272E-02   0.0000       0.0000      0.13272E-02   0.0000       0.0000       0.0000       0.0000       0.0000       0.0000       0.0000       0.0000       0.0000    
    4   -0.23562E-02   0.0000       0.0000      0.23562E-02   0.0000       0.0000       0.0000       0.0000       0.0000       0.0000       0.0000       0.0000       0.0000    
     1 CALLS TO PCG ROUTINE FOR TIME STEP   3 IN STRESS PERIOD    4
     1 TOTAL ITERATIONS
 
 SOLVING FOR HEAD 
  LAMINAR PRECALCULATION
MODFLOW ITER.#  NEWTON-RAPHSON ITER.#   MAXIMUM NODE HEAD CHANGE
         1                   1                  0.0000000000


Solver Convergence Information:
                              HClose:  1.7763568E-15
                              RClose:  3.5527137E-15
                           L2-RClose:  7.1054274E-15
                         Rel-Vol-Err:  0.0
 
  LAMINAR PRECALCULATION
MODFLOW ITER.#  NEWTON-RAPHSON ITER.#   MAXIMUM NODE HEAD CHANGE
         1                   1                  0.0000000000

 NO OUTPUT CONTROL FOR STRESS PERIOD      4   TIME STEP     4
 
 
 CFPM1 CRITERION OF CONVERGENCE:     0.1000000E-05
 CFPM1 MAXIMUM NUMBER OF ITERATIONS:   100
 
 
 CFPM1 RESULTS +++++++++++++++++++++++++++++++++++++++++++++++++++++++
 
 STRESS PERIOD/TIME STEP           4           4
 
NUMBER OF NEWTON RHAPSON ITERATIONS:     1
 
 ------- RESULTS OF FLOW CALCULATION -------
 
NODE#  NODE HEAD[M]   MATRIX HEAD [M] EXCHANGE [M^3/S]      CAD STORAGE    CADS RECHARGE         PFPSFLOW  DIRECT RECHARGE            QWELL             FHLQ           CAUCHY        CAUCHY LQ              QLH             QFIX
    1  9.500    FIX      10.00000       -0.7853982E-03     0.000000         0.000000         0.000000         0.000000         0.000000         0.000000         0.000000         0.000000         0.000000       -0.7853982E-03
    2  9.500    FIX      9.761658       -0.8220224E-03     0.000000         0.000000         0.000000         0.000000         0.000000         0.000000         0.000000         0.000000         0.000000       -0.8220224E-03
    3  9.500    FIX      9.922446       -0.1327154E-02     0.000000         0.000000         0.000000         0.000000         0.000000         0.000000         0.000000         0.000000         0.000000       -0.1327154E-02
    4  9.500    FIX      11.00000       -0.2356194E-02     0.000000         0.000000         0.000000         0.000000         0.000000         0.000000         0.000000         0.000000         0.000000       -0.2356194E-02
 
TUBE  B  E  FLOW          Q [M^3/SEC]     DIAM.[M]        LEN.[M]        RE         RESIDENCE TIME [S]
    WARNING! TUBE    1 ACTIVE BUT NO FLOW
   1   1   2   LAMI.         0.00000        1.00000       10.00000        0.00000        0.00000
    WARNING! TUBE    2 ACTIVE BUT NO FLOW
   2   2   3   LAMI.         0.00000        1.00000       10.00000        0.00000        0.00000
    WARNING! TUBE    3 ACTIVE BUT NO FLOW
   3   3   4   LAMI.         0.00000        1.00000       10.00000        0.00000        0.00000
 

    BUDGET OF THE PIPE SYSTEM OF TIMESTEP    4 IN STRESS PERIOD    4
------------------------------------------------------------------------

  TOTAL SIMULATION TIME   340.000000000000      S
 
        CUMULATIVE VALUES (L**3)        RATES THIS TIME STEP (L**3/T)

            IN:                               IN:
     CONSTANT HEAD =   0.0000000          CONSTANT HEAD =   0.0000000    
   MATRIX EXCHANGE =   1.7988616        MATRIX EXCHANGE =  0.52907693E-02
     PIPE RECHARGE =   0.0000000          PIPE RECHARGE =   0.0000000    
       PFP STORAGE =   0.0000000            PFP STORAGE =   0.0000000    

     CUMULATIVE IN =   1.7988616               TOTAL IN =  0.52907693E-02

           OUT:                               OUT:
     CONSTANT HEAD =   1.7988616          CONSTANT HEAD =  0.52907693E-02
   MATRIX EXCHANGE =   0.0000000        MATRIX EXCHANGE =   0.0000000    
     PIPE RECHARGE =   0.0000000          PIPE RECHARGE =   0.0000000    
       PFP STORAGE =   0.0000000            PFP STORAGE =   0.0000000    

    CUMULATIVE OUT =   1.7988616              TOTAL OUT =  0.52907693E-02

          IN - OUT =   0.0000000               IN - OUT =   0.0000000    
     PERCENT ERROR =  0.00                PERCENT ERROR =  0.00


 
 ------------------------NODE WATER BUDGET-----------------------
  STRESS PERIOD           4  TIME STEP           4
 TOTAL SIMULATION TIME   340.000000000000     
 
 FLOW TO THE NODE IN M^3/S
 
 NODE     FIXED HEAD     RECHARGE        QWELL  MATRIX EXCH      STORAGE      TUBE_IN     TUBE_OUT         CADS     FHLQ(LQ)       CAUCHY   CAUCHY(LQ)          QLH     IN - OUT
    1   -0.78540E-03   0.0000       0.0000      0.78540E-03   0.0000       0.0000       0.0000       0.0000       0.0000       0.0000       0.0000       0.0000       0.0000    
    2   -0.82202E-03   0.0000       0.0000      0.82202E-03   0.0000       0.0000       0.0000       0.0000       0.0000       0.0000       0.0000       0.0000       0.0000    
    3   -0.13272E-02   0.0000       0.0000      0.13272E-02   0.0000       0.0000       0.0000       0.0000       0.0000       0.0000       0.0000       0.0000       0.0000    
    4   -0.23562E-02   0.0000       0.0000      0.23562E-02   0.0000       0.0000       0.0000       0.0000       0.0000       0.0000       0.0000       0.0000       0.0000    
     1 CALLS TO PCG ROUTINE FOR TIME STEP   4 IN STRESS PERIOD    4
     1 TOTAL ITERATIONS
 
 SOLVING FOR HEAD 
  LAMINAR PRECALCULATION
MODFLOW ITER.#  NEWTON-RAPHSON ITER.#   MAXIMUM NODE HEAD CHANGE
         1                   1                  0.0000000000


Solver Convergence Information:
                              HClose:  1.7763568E-15
                              RClose:  3.5527137E-15
                           L2-RClose:  7.1054545E-15
                         Rel-Vol-Err:  0.0
 
  LAMINAR PRECALCULATION
MODFLOW ITER.#  NEWTON-RAPHSON ITER.#   MAXIMUM NODE HEAD CHANGE
         1                   1                  0.0000000000

 NO OUTPUT CONTROL FOR STRESS PERIOD      4   TIME STEP     5
 
 
 CFPM1 CRITERION OF CONVERGENCE:     0.1000000E-05
 CFPM1 MAXIMUM NUMBER OF ITERATIONS:   100
 
 
 CFPM1 RESULTS +++++++++++++++++++++++++++++++++++++++++++++++++++++++
 
 STRESS PERIOD/TIME STEP           4           5
 
NUMBER OF NEWTON RHAPSON ITERATIONS:     1
 
 ------- RESULTS OF FLOW CALCULATION -------
 
NODE#  NODE HEAD[M]   MATRIX HEAD [M] EXCHANGE [M^3/S]      CAD STORAGE    CADS RECHARGE         PFPSFLOW  DIRECT RECHARGE            QWELL             FHLQ           CAUCHY        CAUCHY LQ              QLH             QFIX
    1  9.500    FIX      10.00000       -0.7853982E-03     0.000000         0.000000         0.000000         0.000000         0.000000         0.000000         0.000000         0.000000         0.000000       -0.7853982E-03
    2  9.500    FIX      9.761658       -0.8220224E-03     0.000000         0.000000         0.000000         0.000000         0.000000         0.000000         0.000000         0.000000         0.000000       -0.8220224E-03
    3  9.500    FIX      9.922446       -0.1327154E-02     0.000000         0.000000         0.000000         0.000000         0.000000         0.000000         0.000000         0.000000         0.000000       -0.1327154E-02
    4  9.500    FIX      11.00000       -0.2356194E-02     0.000000         0.000000         0.000000         0.000000         0.000000         0.000000         0.000000         0.000000         0.000000       -0.2356194E-02
 
TUBE  B  E  FLOW          Q [M^3/SEC]     DIAM.[M]        LEN.[M]        RE         RESIDENCE TIME [S]
    WARNING! TUBE    1 ACTIVE BUT NO FLOW
   1   1   2   LAMI.         0.00000        1.00000       10.00000        0.00000        0.00000
    WARNING! TUBE    2 ACTIVE BUT NO FLOW
   2   2   3   LAMI.         0.00000        1.00000       10.00000        0.00000        0.00000
    WARNING! TUBE    3 ACTIVE BUT NO FLOW
   3   3   4   LAMI.         0.00000        1.00000       10.00000        0.00000        0.00000
 

    BUDGET OF THE PIPE SYSTEM OF TIMESTEP    5 IN STRESS PERIOD    4
------------------------------------------------------------------------

  TOTAL SIMULATION TIME   350.000000000000      S
 
        CUMULATIVE VALUES (L**3)        RATES THIS TIME STEP (L**3/T)

            IN:                               IN:
     CONSTANT HEAD =   0.0000000          CONSTANT HEAD =   0.0000000    
   MATRIX EXCHANGE =   1.8517693        MATRIX EXCHANGE =  0.52907693E-02
     PIPE RECHARGE =   0.0000000          PIPE RECHARGE =   0.0000000    
       PFP STORAGE =   0.0000000            PFP STORAGE =   0.0000000    

     CUMULATIVE IN =   1.8517693               TOTAL IN =  0.52907693E-02

           OUT:                               OUT:
     CONSTANT HEAD =   1.8517693          CONSTANT HEAD =  0.52907693E-02
   MATRIX EXCHANGE =   0.0000000        MATRIX EXCHANGE =   0.0000000    
     PIPE RECHARGE =   0.0000000          PIPE RECHARGE =   0.0000000    
       PFP STORAGE =   0.0000000            PFP STORAGE =   0.0000000    

    CUMULATIVE OUT =   1.8517693              TOTAL OUT =  0.52907693E-02

          IN - OUT =   0.0000000               IN - OUT =   0.0000000    
     PERCENT ERROR =  0.00                PERCENT ERROR =  0.00


 
 ------------------------NODE WATER BUDGET-----------------------
  STRESS PERIOD           4  TIME STEP           5
 TOTAL SIMULATION TIME   350.000000000000     
 
 FLOW TO THE NODE IN M^3/S
 
 NODE     FIXED HEAD     RECHARGE        QWELL  MATRIX EXCH      STORAGE      TUBE_IN     TUBE_OUT         CADS     FHLQ(LQ)       CAUCHY   CAUCHY(LQ)          QLH     IN - OUT
    1   -0.78540E-03   0.0000       0.0000      0.78540E-03   0.0000       0.0000       0.0000       0.0000       0.0000       0.0000       0.0000       0.0000       0.0000    
    2   -0.82202E-03   0.0000       0.0000      0.82202E-03   0.0000       0.0000       0.0000       0.0000       0.0000       0.0000       0.0000       0.0000       0.0000    
    3   -0.13272E-02   0.0000       0.0000      0.13272E-02   0.0000       0.0000       0.0000       0.0000       0.0000       0.0000       0.0000       0.0000       0.0000    
    4   -0.23562E-02   0.0000       0.0000      0.23562E-02   0.0000       0.0000       0.0000       0.0000       0.0000       0.0000       0.0000       0.0000       0.0000    
     1 CALLS TO PCG ROUTINE FOR TIME STEP   5 IN STRESS PERIOD    4
     1 TOTAL ITERATIONS

 MAXIMUM HEAD CHANGE FOR EACH ITERATION (1 INDICATES THE FIRST INNER ITERATION):

    HEAD CHANGE    HEAD CHANGE    HEAD CHANGE    HEAD CHANGE    HEAD CHANGE 
   LAYER,ROW,COL  LAYER,ROW,COL  LAYER,ROW,COL  LAYER,ROW,COL  LAYER,ROW,COL
 ---------------------------------------------------------------------------
  1 -0.9547E-15
   (  1,  3,  3)

 MAXIMUM RESIDUAL FOR EACH ITERATION (1 INDICATES THE FIRST INNER ITERATION):

    RESIDUAL       RESIDUAL       RESIDUAL       RESIDUAL       RESIDUAL    
   LAYER,ROW,COL  LAYER,ROW,COL  LAYER,ROW,COL  LAYER,ROW,COL  LAYER,ROW,COL
 ---------------------------------------------------------------------------
  1  0.6889E-19
   (  1,  2,  4)


 
 SOLVING FOR HEAD 
  LAMINAR PRECALCULATION
MODFLOW ITER.#  NEWTON-RAPHSON ITER.#   MAXIMUM NODE HEAD CHANGE
         1                   1                  0.0000000000


Solver Convergence Information:
                              HClose:  1.7763568E-15
                              RClose:  3.5527137E-15
                           L2-RClose:  7.1054409E-15
                         Rel-Vol-Err:  0.0
 
  LAMINAR PRECALCULATION
MODFLOW ITER.#  NEWTON-RAPHSON ITER.#   MAXIMUM NODE HEAD CHANGE
         1                   1                  0.0000000000

 NO OUTPUT CONTROL FOR STRESS PERIOD      4   TIME STEP     6
 
 
 CFPM1 CRITERION OF CONVERGENCE:     0.1000000E-05
 CFPM1 MAXIMUM NUMBER OF ITERATIONS:   100
 
 
 CFPM1 RESULTS +++++++++++++++++++++++++++++++++++++++++++++++++++++++
 
 STRESS PERIOD/TIME STEP           4           6
 
NUMBER OF NEWTON RHAPSON ITERATIONS:     1
 
 ------- RESULTS OF FLOW CALCULATION -------
 
NODE#  NODE HEAD[M]   MATRIX HEAD [M] EXCHANGE [M^3/S]      CAD STORAGE    CADS RECHARGE         PFPSFLOW  DIRECT RECHARGE            QWELL             FHLQ           CAUCHY        CAUCHY LQ              QLH             QFIX
    1  9.500    FIX      10.00000       -0.7853982E-03     0.000000         0.000000         0.000000         0.000000         0.000000         0.000000         0.000000         0.000000         0.000000       -0.7853982E-03
    2  9.500    FIX      9.761658       -0.8220224E-03     0.000000         0.000000         0.000000         0.000000         0.000000         0.000000         0.000000         0.000000         0.000000       -0.8220224E-03
    3  9.500    FIX      9.922446       -0.1327154E-02     0.000000         0.000000         0.000000         0.000000         0.000000         0.000000         0.000000         0.000000         0.000000       -0.1327154E-02
    4  9.500    FIX      11.00000       -0.2356194E-02     0.000000         0.000000         0.000000         0.000000         0.000000         0.000000         0.000000         0.000000         0.000000       -0.2356194E-02
 
TUBE  B  E  FLOW          Q [M^3/SEC]     DIAM.[M]        LEN.[M]        RE         RESIDENCE TIME [S]
    WARNING! TUBE    1 ACTIVE BUT NO FLOW
   1   1   2   LAMI.         0.00000        1.00000       10.00000        0.00000        0.00000
    WARNING! TUBE    2 ACTIVE BUT NO FLOW
   2   2   3   LAMI.         0.00000        1.00000       10.00000        0.00000        0.00000
    WARNING! TUBE    3 ACTIVE BUT NO FLOW
   3   3   4   LAMI.         0.00000        1.00000       10.00000        0.00000        0.00000
 

    BUDGET OF THE PIPE SYSTEM OF TIMESTEP    6 IN STRESS PERIOD    4
------------------------------------------------------------------------

  TOTAL SIMULATION TIME   360.000000000000      S
 
        CUMULATIVE VALUES (L**3)        RATES THIS TIME STEP (L**3/T)

            IN:                               IN:
     CONSTANT HEAD =   0.0000000          CONSTANT HEAD =   0.0000000    
   MATRIX EXCHANGE =   1.9046769        MATRIX EXCHANGE =  0.52907693E-02
     PIPE RECHARGE =   0.0000000          PIPE RECHARGE =   0.0000000    
       PFP STORAGE =   0.0000000            PFP STORAGE =   0.0000000    

     CUMULATIVE IN =   1.9046769               TOTAL IN =  0.52907693E-02

           OUT:                               OUT:
     CONSTANT HEAD =   1.9046769          CONSTANT HEAD =  0.52907693E-02
   MATRIX EXCHANGE =   0.0000000        MATRIX EXCHANGE =   0.0000000    
     PIPE RECHARGE =   0.0000000          PIPE RECHARGE =   0.0000000    
       PFP STORAGE =   0.0000000            PFP STORAGE =   0.0000000    

    CUMULATIVE OUT =   1.9046769              TOTAL OUT =  0.52907693E-02

          IN - OUT =   0.0000000               IN - OUT =   0.0000000    
     PERCENT ERROR =  0.00                PERCENT ERROR =  0.00


 
 ------------------------NODE WATER BUDGET-----------------------
  STRESS PERIOD           4  TIME STEP           6
 TOTAL SIMULATION TIME   360.000000000000     
 
 FLOW TO THE NODE IN M^3/S
 
 NODE     FIXED HEAD     RECHARGE        QWELL  MATRIX EXCH      STORAGE      TUBE_IN     TUBE_OUT         CADS     FHLQ(LQ)       CAUCHY   CAUCHY(LQ)          QLH     IN - OUT
    1   -0.78540E-03   0.0000       0.0000      0.78540E-03   0.0000       0.0000       0.0000       0.0000       0.0000       0.0000       0.0000       0.0000       0.0000    
    2   -0.82202E-03   0.0000       0.0000      0.82202E-03   0.0000       0.0000       0.0000       0.0000       0.0000       0.0000       0.0000       0.0000       0.0000    
    3   -0.13272E-02   0.0000       0.0000      0.13272E-02   0.0000       0.0000       0.0000       0.0000       0.0000       0.0000       0.0000       0.0000       0.0000    
    4   -0.23562E-02   0.0000       0.0000      0.23562E-02   0.0000       0.0000       0.0000       0.0000       0.0000       0.0000       0.0000       0.0000       0.0000    
     1 CALLS TO PCG ROUTINE FOR TIME STEP   6 IN STRESS PERIOD    4
     1 TOTAL ITERATIONS
 
 SOLVING FOR HEAD 
  LAMINAR PRECALCULATION
MODFLOW ITER.#  NEWTON-RAPHSON ITER.#   MAXIMUM NODE HEAD CHANGE
         1                   1                  0.0000000000


Solver Convergence Information:
                              HClose:  1.7763568E-15
                              RClose:  3.5527137E-15
                           L2-RClose:  7.1054274E-15
                         Rel-Vol-Err:  0.0
 
  LAMINAR PRECALCULATION
MODFLOW ITER.#  NEWTON-RAPHSON ITER.#   MAXIMUM NODE HEAD CHANGE
         1                   1                  0.0000000000

 NO OUTPUT CONTROL FOR STRESS PERIOD      4   TIME STEP     7
 
 
 CFPM1 CRITERION OF CONVERGENCE:     0.1000000E-05
 CFPM1 MAXIMUM NUMBER OF ITERATIONS:   100
 
 
 CFPM1 RESULTS +++++++++++++++++++++++++++++++++++++++++++++++++++++++
 
 STRESS PERIOD/TIME STEP           4           7
 
NUMBER OF NEWTON RHAPSON ITERATIONS:     1
 
 ------- RESULTS OF FLOW CALCULATION -------
 
NODE#  NODE HEAD[M]   MATRIX HEAD [M] EXCHANGE [M^3/S]      CAD STORAGE    CADS RECHARGE         PFPSFLOW  DIRECT RECHARGE            QWELL             FHLQ           CAUCHY        CAUCHY LQ              QLH             QFIX
    1  9.500    FIX      10.00000       -0.7853982E-03     0.000000         0.000000         0.000000         0.000000         0.000000         0.000000         0.000000         0.000000         0.000000       -0.7853982E-03
    2  9.500    FIX      9.761658       -0.8220224E-03     0.000000         0.000000         0.000000         0.000000         0.000000         0.000000         0.000000         0.000000         0.000000       -0.8220224E-03
    3  9.500    FIX      9.922446       -0.1327154E-02     0.000000         0.000000         0.000000         0.000000         0.000000         0.000000         0.000000         0.000000         0.000000       -0.1327154E-02
    4  9.500    FIX      11.00000       -0.2356194E-02     0.000000         0.000000         0.000000         0.000000         0.000000         0.000000         0.000000         0.000000         0.000000       -0.2356194E-02
 
TUBE  B  E  FLOW          Q [M^3/SEC]     DIAM.[M]        LEN.[M]        RE         RESIDENCE TIME [S]
    WARNING! TUBE    1 ACTIVE BUT NO FLOW
   1   1   2   LAMI.         0.00000        1.00000       10.00000        0.00000        0.00000
    WARNING! TUBE    2 ACTIVE BUT NO FLOW
   2   2   3   LAMI.         0.00000        1.00000       10.00000        0.00000        0.00000
    WARNING! TUBE    3 ACTIVE BUT NO FLOW
   3   3   4   LAMI.         0.00000        1.00000       10.00000        0.00000        0.00000
 

    BUDGET OF THE PIPE SYSTEM OF TIMESTEP    7 IN STRESS PERIOD    4
------------------------------------------------------------------------

  TOTAL SIMULATION TIME   370.000000000000      S
 
        CUMULATIVE VALUES (L**3)        RATES THIS TIME STEP (L**3/T)

            IN:                               IN:
     CONSTANT HEAD =   0.0000000          CONSTANT HEAD =   0.0000000    
   MATRIX EXCHANGE =   1.9575846        MATRIX EXCHANGE =  0.52907693E-02
     PIPE RECHARGE =   0.0000000          PIPE RECHARGE =   0.0000000    
       PFP STORAGE =   0.0000000            PFP STORAGE =   0.0000000    

     CUMULATIVE IN =   1.9575846               TOTAL IN =  0.52907693E-02

           OUT:                               OUT:
     CONSTANT HEAD =   1.9575846          CONSTANT HEAD =  0.52907693E-02
   MATRIX EXCHANGE =   0.0000000        MATRIX EXCHANGE =   0.0000000    
     PIPE RECHARGE =   0.0000000          PIPE RECHARGE =   0.0000000    
       PFP STORAGE =   0.0000000            PFP STORAGE =   0.0000000    

    CUMULATIVE OUT =   1.9575846              TOTAL OUT =  0.52907693E-02

          IN - OUT =   0.0000000               IN - OUT =   0.0000000    
     PERCENT ERROR =  0.00                PERCENT ERROR =  0.00


 
 ------------------------NODE WATER BUDGET-----------------------
  STRESS PERIOD           4  TIME STEP           7
 TOTAL SIMULATION TIME   370.000000000000     
 
 FLOW TO THE NODE IN M^3/S
 
 NODE     FIXED HEAD     RECHARGE        QWELL  MATRIX EXCH      STORAGE      TUBE_IN     TUBE_OUT         CADS     FHLQ(LQ)       CAUCHY   CAUCHY(LQ)          QLH     IN - OUT
    1   -0.78540E-03   0.0000       0.0000      0.78540E-03   0.0000       0.0000       0.0000       0.0000       0.0000       0.0000       0.0000       0.0000       0.0000    
    2   -0.82202E-03   0.0000       0.0000      0.82202E-03   0.0000       0.0000       0.0000       0.0000       0.0000       0.0000       0.0000       0.0000       0.0000    
    3   -0.13272E-02   0.0000       0.0000      0.13272E-02   0.0000       0.0000       0.0000       0.0000       0.0000       0.0000       0.0000       0.0000       0.0000    
    4   -0.23562E-02   0.0000       0.0000      0.23562E-02   0.0000       0.0000       0.0000       0.0000       0.0000       0.0000       0.0000       0.0000       0.0000    
     1 CALLS TO PCG ROUTINE FOR TIME STEP   7 IN STRESS PERIOD    4
     1 TOTAL ITERATIONS
 
 SOLVING FOR HEAD 
  LAMINAR PRECALCULATION
MODFLOW ITER.#  NEWTON-RAPHSON ITER.#   MAXIMUM NODE HEAD CHANGE
         1                   1                  0.0000000000


Solver Convergence Information:
                              HClose:  1.7763568E-15
                              RClose:  3.5527137E-15
                           L2-RClose:  7.1054545E-15
                         Rel-Vol-Err:  0.0
 
  LAMINAR PRECALCULATION
MODFLOW ITER.#  NEWTON-RAPHSON ITER.#   MAXIMUM NODE HEAD CHANGE
         1                   1                  0.0000000000

 NO OUTPUT CONTROL FOR STRESS PERIOD      4   TIME STEP     8
 
 
 CFPM1 CRITERION OF CONVERGENCE:     0.1000000E-05
 CFPM1 MAXIMUM NUMBER OF ITERATIONS:   100
 
 
 CFPM1 RESULTS +++++++++++++++++++++++++++++++++++++++++++++++++++++++
 
 STRESS PERIOD/TIME STEP           4           8
 
NUMBER OF NEWTON RHAPSON ITERATIONS:     1
 
 ------- RESULTS OF FLOW CALCULATION -------
 
NODE#  NODE HEAD[M]   MATRIX HEAD [M] EXCHANGE [M^3/S]      CAD STORAGE    CADS RECHARGE         PFPSFLOW  DIRECT RECHARGE            QWELL             FHLQ           CAUCHY        CAUCHY LQ              QLH             QFIX
    1  9.500    FIX      10.00000       -0.7853982E-03     0.000000         0.000000         0.000000         0.000000         0.000000         0.000000         0.000000         0.000000         0.000000       -0.7853982E-03
    2  9.500    FIX      9.761658       -0.8220224E-03     0.000000         0.000000         0.000000         0.000000         0.000000         0.000000         0.000000         0.000000         0.000000       -0.8220224E-03
    3  9.500    FIX      9.922446       -0.1327154E-02     0.000000         0.000000         0.000000         0.000000         0.000000         0.000000         0.000000         0.000000         0.000000       -0.1327154E-02
    4  9.500    FIX      11.00000       -0.2356194E-02     0.000000         0.000000         0.000000         0.000000         0.000000         0.000000         0.000000         0.000000         0.000000       -0.2356194E-02
 
TUBE  B  E  FLOW          Q [M^3/SEC]     DIAM.[M]        LEN.[M]        RE         RESIDENCE TIME [S]
    WARNING! TUBE    1 ACTIVE BUT NO FLOW
   1   1   2   LAMI.         0.00000        1.00000       10.00000        0.00000        0.00000
    WARNING! TUBE    2 ACTIVE BUT NO FLOW
   2   2   3   LAMI.         0.00000        1.00000       10.00000        0.00000        0.00000
    WARNING! TUBE    3 ACTIVE BUT NO FLOW
   3   3   4   LAMI.         0.00000        1.00000       10.00000        0.00000        0.00000
 

    BUDGET OF THE PIPE SYSTEM OF TIMESTEP    8 IN STRESS PERIOD    4
------------------------------------------------------------------------

  TOTAL SIMULATION TIME   380.000000000000      S
 
        CUMULATIVE VALUES (L**3)        RATES THIS TIME STEP (L**3/T)

            IN:                               IN:
     CONSTANT HEAD =   0.0000000          CONSTANT HEAD =   0.0000000    
   MATRIX EXCHANGE =   2.0104923        MATRIX EXCHANGE =  0.52907693E-02
     PIPE RECHARGE =   0.0000000          PIPE RECHARGE =   0.0000000    
       PFP STORAGE =   0.0000000            PFP STORAGE =   0.0000000    

     CUMULATIVE IN =   2.0104923               TOTAL IN =  0.52907693E-02

           OUT:                               OUT:
     CONSTANT HEAD =   2.0104923          CONSTANT HEAD =  0.52907693E-02
   MATRIX EXCHANGE =   0.0000000        MATRIX EXCHANGE =   0.0000000    
     PIPE RECHARGE =   0.0000000          PIPE RECHARGE =   0.0000000    
       PFP STORAGE =   0.0000000            PFP STORAGE =   0.0000000    

    CUMULATIVE OUT =   2.0104923              TOTAL OUT =  0.52907693E-02

          IN - OUT =   0.0000000               IN - OUT =   0.0000000    
     PERCENT ERROR =  0.00                PERCENT ERROR =  0.00


 
 ------------------------NODE WATER BUDGET-----------------------
  STRESS PERIOD           4  TIME STEP           8
 TOTAL SIMULATION TIME   380.000000000000     
 
 FLOW TO THE NODE IN M^3/S
 
 NODE     FIXED HEAD     RECHARGE        QWELL  MATRIX EXCH      STORAGE      TUBE_IN     TUBE_OUT         CADS     FHLQ(LQ)       CAUCHY   CAUCHY(LQ)          QLH     IN - OUT
    1   -0.78540E-03   0.0000       0.0000      0.78540E-03   0.0000       0.0000       0.0000       0.0000       0.0000       0.0000       0.0000       0.0000       0.0000    
    2   -0.82202E-03   0.0000       0.0000      0.82202E-03   0.0000       0.0000       0.0000       0.0000       0.0000       0.0000       0.0000       0.0000       0.0000    
    3   -0.13272E-02   0.0000       0.0000      0.13272E-02   0.0000       0.0000       0.0000       0.0000       0.0000       0.0000       0.0000       0.0000       0.0000    
    4   -0.23562E-02   0.0000       0.0000      0.23562E-02   0.0000       0.0000       0.0000       0.0000       0.0000       0.0000       0.0000       0.0000       0.0000    
     1 CALLS TO PCG ROUTINE FOR TIME STEP   8 IN STRESS PERIOD    4
     1 TOTAL ITERATIONS
 
 SOLVING FOR HEAD 
  LAMINAR PRECALCULATION
MODFLOW ITER.#  NEWTON-RAPHSON ITER.#   MAXIMUM NODE HEAD CHANGE
         1                   1                  0.0000000000


Solver Convergence Information:
                              HClose:  1.7763568E-15
                              RClose:  3.5527137E-15
                           L2-RClose:  7.1054409E-15
                         Rel-Vol-Err:  0.0
 
  LAMINAR PRECALCULATION
MODFLOW ITER.#  NEWTON-RAPHSON ITER.#   MAXIMUM NODE HEAD CHANGE
         1                   1                  0.0000000000

 NO OUTPUT CONTROL FOR STRESS PERIOD      4   TIME STEP     9
 
 
 CFPM1 CRITERION OF CONVERGENCE:     0.1000000E-05
 CFPM1 MAXIMUM NUMBER OF ITERATIONS:   100
 
 
 CFPM1 RESULTS +++++++++++++++++++++++++++++++++++++++++++++++++++++++
 
 STRESS PERIOD/TIME STEP           4           9
 
NUMBER OF NEWTON RHAPSON ITERATIONS:     1
 
 ------- RESULTS OF FLOW CALCULATION -------
 
NODE#  NODE HEAD[M]   MATRIX HEAD [M] EXCHANGE [M^3/S]      CAD STORAGE    CADS RECHARGE         PFPSFLOW  DIRECT RECHARGE            QWELL             FHLQ           CAUCHY        CAUCHY LQ              QLH             QFIX
    1  9.500    FIX      10.00000       -0.7853982E-03     0.000000         0.000000         0.000000         0.000000         0.000000         0.000000         0.000000         0.000000         0.000000       -0.7853982E-03
    2  9.500    FIX      9.761658       -0.8220224E-03     0.000000         0.000000         0.000000         0.000000         0.000000         0.000000         0.000000         0.000000         0.000000       -0.8220224E-03
    3  9.500    FIX      9.922446       -0.1327154E-02     0.000000         0.000000         0.000000         0.000000         0.000000         0.000000         0.000000         0.000000         0.000000       -0.1327154E-02
    4  9.500    FIX      11.00000       -0.2356194E-02     0.000000         0.000000         0.000000         0.000000         0.000000         0.000000         0.000000         0.000000         0.000000       -0.2356194E-02
 
TUBE  B  E  FLOW          Q [M^3/SEC]     DIAM.[M]        LEN.[M]        RE         RESIDENCE TIME [S]
    WARNING! TUBE    1 ACTIVE BUT NO FLOW
   1   1   2   LAMI.         0.00000        1.00000       10.00000        0.00000        0.00000
    WARNING! TUBE    2 ACTIVE BUT NO FLOW
   2   2   3   LAMI.         0.00000        1.00000       10.00000        0.00000        0.00000
    WARNING! TUBE    3 ACTIVE BUT NO FLOW
   3   3   4   LAMI.         0.00000        1.00000       10.00000        0.00000        0.00000
 

    BUDGET OF THE PIPE SYSTEM OF TIMESTEP    9 IN STRESS PERIOD    4
------------------------------------------------------------------------

  TOTAL SIMULATION TIME   390.000000000000      S
 
        CUMULATIVE VALUES (L**3)        RATES THIS TIME STEP (L**3/T)

            IN:                               IN:
     CONSTANT HEAD =   0.0000000          CONSTANT HEAD =   0.0000000    
   MATRIX EXCHANGE =   2.0634000        MATRIX EXCHANGE =  0.52907693E-02
     PIPE RECHARGE =   0.0000000          PIPE RECHARGE =   0.0000000    
       PFP STORAGE =   0.0000000            PFP STORAGE =   0.0000000    

     CUMULATIVE IN =   2.0634000               TOTAL IN =  0.52907693E-02

           OUT:                               OUT:
     CONSTANT HEAD =   2.0634000          CONSTANT HEAD =  0.52907693E-02
   MATRIX EXCHANGE =   0.0000000        MATRIX EXCHANGE =   0.0000000    
     PIPE RECHARGE =   0.0000000          PIPE RECHARGE =   0.0000000    
       PFP STORAGE =   0.0000000            PFP STORAGE =   0.0000000    

    CUMULATIVE OUT =   2.0634000              TOTAL OUT =  0.52907693E-02

          IN - OUT =   0.0000000               IN - OUT =   0.0000000    
     PERCENT ERROR =  0.00                PERCENT ERROR =  0.00


 
 ------------------------NODE WATER BUDGET-----------------------
  STRESS PERIOD           4  TIME STEP           9
 TOTAL SIMULATION TIME   390.000000000000     
 
 FLOW TO THE NODE IN M^3/S
 
 NODE     FIXED HEAD     RECHARGE        QWELL  MATRIX EXCH      STORAGE      TUBE_IN     TUBE_OUT         CADS     FHLQ(LQ)       CAUCHY   CAUCHY(LQ)          QLH     IN - OUT
    1   -0.78540E-03   0.0000       0.0000      0.78540E-03   0.0000       0.0000       0.0000       0.0000       0.0000       0.0000       0.0000       0.0000       0.0000    
    2   -0.82202E-03   0.0000       0.0000      0.82202E-03   0.0000       0.0000       0.0000       0.0000       0.0000       0.0000       0.0000       0.0000       0.0000    
    3   -0.13272E-02   0.0000       0.0000      0.13272E-02   0.0000       0.0000       0.0000       0.0000       0.0000       0.0000       0.0000       0.0000       0.0000    
    4   -0.23562E-02   0.0000       0.0000      0.23562E-02   0.0000       0.0000       0.0000       0.0000       0.0000       0.0000       0.0000       0.0000       0.0000    
     1 CALLS TO PCG ROUTINE FOR TIME STEP   9 IN STRESS PERIOD    4
     1 TOTAL ITERATIONS
 
 SOLVING FOR HEAD 
  LAMINAR PRECALCULATION
MODFLOW ITER.#  NEWTON-RAPHSON ITER.#   MAXIMUM NODE HEAD CHANGE
         1                   1                  0.0000000000


Solver Convergence Information:
                              HClose:  1.7763568E-15
                              RClose:  3.5527137E-15
                           L2-RClose:  7.1054274E-15
                         Rel-Vol-Err:  0.0
 
  LAMINAR PRECALCULATION
MODFLOW ITER.#  NEWTON-RAPHSON ITER.#   MAXIMUM NODE HEAD CHANGE
         1                   1                  0.0000000000

 OUTPUT CONTROL FOR STRESS PERIOD      4   TIME STEP    10
    PRINT HEAD FOR ALL LAYERS
    SAVE HEAD FOR ALL LAYERS
    SAVE BUDGET
 UBDSV1 SAVING "         STORAGE" ON UNIT 50 AT TIME STEP 10, STRESS PERIOD 4
 UBDSV2 SAVING "   CONSTANT HEAD" ON UNIT 50 AT TIME STEP 10, STRESS PERIOD 4
 UBDSV1 SAVING "FLOW RIGHT FACE " ON UNIT 50 AT TIME STEP 10, STRESS PERIOD 4
 UBDSV1 SAVING "FLOW FRONT FACE " ON UNIT 50 AT TIME STEP 10, STRESS PERIOD 4
 
 
 CFPM1 CRITERION OF CONVERGENCE:     0.1000000E-05
 CFPM1 MAXIMUM NUMBER OF ITERATIONS:   100
 
 
 CFPM1 RESULTS +++++++++++++++++++++++++++++++++++++++++++++++++++++++
 
 STRESS PERIOD/TIME STEP           4          10
 
NUMBER OF NEWTON RHAPSON ITERATIONS:     1
 
 ------- RESULTS OF FLOW CALCULATION -------
 
NODE#  NODE HEAD[M]   MATRIX HEAD [M] EXCHANGE [M^3/S]      CAD STORAGE    CADS RECHARGE         PFPSFLOW  DIRECT RECHARGE            QWELL             FHLQ           CAUCHY        CAUCHY LQ              QLH             QFIX
    1  9.500    FIX      10.00000       -0.7853982E-03     0.000000         0.000000         0.000000         0.000000         0.000000         0.000000         0.000000         0.000000         0.000000       -0.7853982E-03
    2  9.500    FIX      9.761658       -0.8220224E-03     0.000000         0.000000         0.000000         0.000000         0.000000         0.000000         0.000000         0.000000         0.000000       -0.8220224E-03
    3  9.500    FIX      9.922446       -0.1327154E-02     0.000000         0.000000         0.000000         0.000000         0.000000         0.000000         0.000000         0.000000         0.000000       -0.1327154E-02
    4  9.500    FIX      11.00000       -0.2356194E-02     0.000000         0.000000         0.000000         0.000000         0.000000         0.000000         0.000000         0.000000         0.000000       -0.2356194E-02
 
TUBE  B  E  FLOW          Q [M^3/SEC]     DIAM.[M]        LEN.[M]        RE         RESIDENCE TIME [S]
    WARNING! TUBE    1 ACTIVE BUT NO FLOW
   1   1   2   LAMI.         0.00000        1.00000       10.00000        0.00000        0.00000
    WARNING! TUBE    2 ACTIVE BUT NO FLOW
   2   2   3   LAMI.         0.00000        1.00000       10.00000        0.00000        0.00000
    WARNING! TUBE    3 ACTIVE BUT NO FLOW
   3   3   4   LAMI.         0.00000        1.00000       10.00000        0.00000        0.00000
 

    BUDGET OF THE PIPE SYSTEM OF TIMESTEP   10 IN STRESS PERIOD    4
------------------------------------------------------------------------

  TOTAL SIMULATION TIME   400.000000000000      S
 
        CUMULATIVE VALUES (L**3)        RATES THIS TIME STEP (L**3/T)

            IN:                               IN:
     CONSTANT HEAD =   0.0000000          CONSTANT HEAD =   0.0000000    
   MATRIX EXCHANGE =   2.1163077        MATRIX EXCHANGE =  0.52907693E-02
     PIPE RECHARGE =   0.0000000          PIPE RECHARGE =   0.0000000    
       PFP STORAGE =   0.0000000            PFP STORAGE =   0.0000000    

     CUMULATIVE IN =   2.1163077               TOTAL IN =  0.52907693E-02

           OUT:                               OUT:
     CONSTANT HEAD =   2.1163077          CONSTANT HEAD =  0.52907693E-02
   MATRIX EXCHANGE =   0.0000000        MATRIX EXCHANGE =   0.0000000    
     PIPE RECHARGE =   0.0000000          PIPE RECHARGE =   0.0000000    
       PFP STORAGE =   0.0000000            PFP STORAGE =   0.0000000    

    CUMULATIVE OUT =   2.1163077              TOTAL OUT =  0.52907693E-02

          IN - OUT =   0.0000000               IN - OUT =   0.0000000    
     PERCENT ERROR =  0.00                PERCENT ERROR =  0.00


 
 ------------------------NODE WATER BUDGET-----------------------
  STRESS PERIOD           4  TIME STEP          10
 TOTAL SIMULATION TIME   400.000000000000     
 
 FLOW TO THE NODE IN M^3/S
 
 NODE     FIXED HEAD     RECHARGE        QWELL  MATRIX EXCH      STORAGE      TUBE_IN     TUBE_OUT         CADS     FHLQ(LQ)       CAUCHY   CAUCHY(LQ)          QLH     IN - OUT
    1   -0.78540E-03   0.0000       0.0000      0.78540E-03   0.0000       0.0000       0.0000       0.0000       0.0000       0.0000       0.0000       0.0000       0.0000    
    2   -0.82202E-03   0.0000       0.0000      0.82202E-03   0.0000       0.0000       0.0000       0.0000       0.0000       0.0000       0.0000       0.0000       0.0000    
    3   -0.13272E-02   0.0000       0.0000      0.13272E-02   0.0000       0.0000       0.0000       0.0000       0.0000       0.0000       0.0000       0.0000       0.0000    
    4   -0.23562E-02   0.0000       0.0000      0.23562E-02   0.0000       0.0000       0.0000       0.0000       0.0000       0.0000       0.0000       0.0000       0.0000    
     1 CALLS TO PCG ROUTINE FOR TIME STEP  10 IN STRESS PERIOD    4
     1 TOTAL ITERATIONS

 MAXIMUM HEAD CHANGE FOR EACH ITERATION (1 INDICATES THE FIRST INNER ITERATION):

    HEAD CHANGE    HEAD CHANGE    HEAD CHANGE    HEAD CHANGE    HEAD CHANGE 
   LAYER,ROW,COL  LAYER,ROW,COL  LAYER,ROW,COL  LAYER,ROW,COL  LAYER,ROW,COL
 ---------------------------------------------------------------------------
  1 -0.1062E-14
   (  1,  2,  3)

 MAXIMUM RESIDUAL FOR EACH ITERATION (1 INDICATES THE FIRST INNER ITERATION):

    RESIDUAL       RESIDUAL       RESIDUAL       RESIDUAL       RESIDUAL    
   LAYER,ROW,COL  LAYER,ROW,COL  LAYER,ROW,COL  LAYER,ROW,COL  LAYER,ROW,COL
 ---------------------------------------------------------------------------
  1 -0.8059E-20
   (  1,  3,  3)


1
              HEAD IN LAYER   1 AT END OF TIME STEP  10 IN STRESS PERIOD    4
  ---------------------------------------------------------------------------

          1         2         3         4         5
 ..................................................
   1    10.       10.       10.       10.       10.    
   2    10.       10.       9.8       10.       10.    
   3    11.       10.       9.9       10.       11.    
   4    11.       11.       11.       11.       11.    

 HEAD WILL BE SAVED ON UNIT   51 AT END OF TIME STEP    10 IN STRESS PERIOD      4



  -------------------------------------------------------------------------------------
  VOLUMETRIC BUDGET FOR ENTIRE MODEL AT END OF TIME STEP   10 IN STRESS PERIOD      4
  -------------------------------------------------------------------------------------

     CUMULATIVE VOLUMES      L**3       RATES FOR THIS TIME STEP      L**3/T
     ------------------                 ------------------------

           IN:                                      IN:
           ---                                      ---
             STORAGE =       7.4674E-16               STORAGE =       1.2468E-18
       CONSTANT HEAD =           2.1872         CONSTANT HEAD =       5.4679E-03
               PIPES =           0.0000                 PIPES =           0.0000

            TOTAL IN =           2.1872              TOTAL IN =       5.4679E-03

          OUT:                                     OUT:
          ----                                     ----
             STORAGE =       2.2443E-16               STORAGE =           0.0000
       CONSTANT HEAD =       7.0857E-02         CONSTANT HEAD =       1.7714E-04
               PIPES =           2.1163                 PIPES =       5.2908E-03

           TOTAL OUT =           2.1872             TOTAL OUT =       5.4679E-03

            IN - OUT =      -1.3270E-09              IN - OUT =       1.4225E-16

 PERCENT DISCREPANCY =          -0.00     PERCENT DISCREPANCY =           0.00


          TIME SUMMARY AT END OF TIME STEP    10 IN STRESS PERIOD      4
                    SECONDS     MINUTES      HOURS       DAYS        YEARS
                    -----------------------------------------------------------
   TIME STEP LENGTH  10.000     0.16667     2.77778E-03 1.15741E-04 3.16881E-07
 STRESS PERIOD TIME  100.00      1.6667     2.77778E-02 1.15741E-03 3.16881E-06
         TOTAL TIME  400.00      6.6667     0.11111     4.62963E-03 1.26752E-05
 
1
                            STRESS PERIOD NO.      5, LENGTH =   100.0000    
                            -----------------------------------------------

                              NUMBER OF TIME STEPS =    10

                               MULTIPLIER FOR DELT =     1.000

                            INITIAL TIME STEP SIZE =   10.00000    
 
 SOLVING FOR HEAD 
  LAMINAR PRECALCULATION
MODFLOW ITER.#  NEWTON-RAPHSON ITER.#   MAXIMUM NODE HEAD CHANGE
         1                   1                  0.0000000000


Solver Convergence Information:
                              HClose:  1.7763568E-15
                              RClose:  3.5527137E-15
                           L2-RClose:  7.1054545E-15
                         Rel-Vol-Err:  0.0
 
  LAMINAR PRECALCULATION
MODFLOW ITER.#  NEWTON-RAPHSON ITER.#   MAXIMUM NODE HEAD CHANGE
         1                   1                  0.0000000000

 NO OUTPUT CONTROL FOR STRESS PERIOD      5   TIME STEP     1
 
 
 CFPM1 CRITERION OF CONVERGENCE:     0.1000000E-05
 CFPM1 MAXIMUM NUMBER OF ITERATIONS:   100
 
 
 CFPM1 RESULTS +++++++++++++++++++++++++++++++++++++++++++++++++++++++
 
 STRESS PERIOD/TIME STEP           5           1
 
NUMBER OF NEWTON RHAPSON ITERATIONS:     1
 
 ------- RESULTS OF FLOW CALCULATION -------
 
NODE#  NODE HEAD[M]   MATRIX HEAD [M] EXCHANGE [M^3/S]      CAD STORAGE    CADS RECHARGE         PFPSFLOW  DIRECT RECHARGE            QWELL             FHLQ           CAUCHY        CAUCHY LQ              QLH             QFIX
    1  9.500    FIX      10.00000       -0.7853982E-03     0.000000         0.000000         0.000000         0.000000         0.000000         0.000000         0.000000         0.000000         0.000000       -0.7853982E-03
    2  9.500    FIX      9.761658       -0.8220224E-03     0.000000         0.000000         0.000000         0.000000         0.000000         0.000000         0.000000         0.000000         0.000000       -0.8220224E-03
    3  9.500    FIX      9.922446       -0.1327154E-02     0.000000         0.000000         0.000000         0.000000         0.000000         0.000000         0.000000         0.000000         0.000000       -0.1327154E-02
    4  9.500    FIX      11.00000       -0.2356194E-02     0.000000         0.000000         0.000000         0.000000         0.000000         0.000000         0.000000         0.000000         0.000000       -0.2356194E-02
 
TUBE  B  E  FLOW          Q [M^3/SEC]     DIAM.[M]        LEN.[M]        RE         RESIDENCE TIME [S]
    WARNING! TUBE    1 ACTIVE BUT NO FLOW
   1   1   2   LAMI.         0.00000        1.00000       10.00000        0.00000        0.00000
    WARNING! TUBE    2 ACTIVE BUT NO FLOW
   2   2   3   LAMI.         0.00000        1.00000       10.00000        0.00000        0.00000
    WARNING! TUBE    3 ACTIVE BUT NO FLOW
   3   3   4   LAMI.         0.00000        1.00000       10.00000        0.00000        0.00000
 

    BUDGET OF THE PIPE SYSTEM OF TIMESTEP    1 IN STRESS PERIOD    5
------------------------------------------------------------------------

  TOTAL SIMULATION TIME   410.000000000000      S
 
        CUMULATIVE VALUES (L**3)        RATES THIS TIME STEP (L**3/T)

            IN:                               IN:
     CONSTANT HEAD =   0.0000000          CONSTANT HEAD =   0.0000000    
   MATRIX EXCHANGE =   2.1692154        MATRIX EXCHANGE =  0.52907693E-02
     PIPE RECHARGE =   0.0000000          PIPE RECHARGE =   0.0000000    
       PFP STORAGE =   0.0000000            PFP STORAGE =   0.0000000    

     CUMULATIVE IN =   2.1692154               TOTAL IN =  0.52907693E-02

           OUT:                               OUT:
     CONSTANT HEAD =   2.1692154          CONSTANT HEAD =  0.52907693E-02
   MATRIX EXCHANGE =   0.0000000        MATRIX EXCHANGE =   0.0000000    
     PIPE RECHARGE =   0.0000000          PIPE RECHARGE =   0.0000000    
       PFP STORAGE =   0.0000000            PFP STORAGE =   0.0000000    

    CUMULATIVE OUT =   2.1692154              TOTAL OUT =  0.52907693E-02

          IN - OUT =   0.0000000               IN - OUT =   0.0000000    
     PERCENT ERROR =  0.00                PERCENT ERROR =  0.00


 
 ------------------------NODE WATER BUDGET-----------------------
  STRESS PERIOD           5  TIME STEP           1
 TOTAL SIMULATION TIME   410.000000000000     
 
 FLOW TO THE NODE IN M^3/S
 
 NODE     FIXED HEAD     RECHARGE        QWELL  MATRIX EXCH      STORAGE      TUBE_IN     TUBE_OUT         CADS     FHLQ(LQ)       CAUCHY   CAUCHY(LQ)          QLH     IN - OUT
    1   -0.78540E-03   0.0000       0.0000      0.78540E-03   0.0000       0.0000       0.0000       0.0000       0.0000       0.0000       0.0000       0.0000       0.0000    
    2   -0.82202E-03   0.0000       0.0000      0.82202E-03   0.0000       0.0000       0.0000       0.0000       0.0000       0.0000       0.0000       0.0000       0.0000    
    3   -0.13272E-02   0.0000       0.0000      0.13272E-02   0.0000       0.0000       0.0000       0.0000       0.0000       0.0000       0.0000       0.0000       0.0000    
    4   -0.23562E-02   0.0000       0.0000      0.23562E-02   0.0000       0.0000       0.0000       0.0000       0.0000       0.0000       0.0000       0.0000       0.0000    


     1 CALLS TO PCG ROUTINE FOR TIME STEP   1 IN STRESS PERIOD    5
     1 TOTAL ITERATIONS
 
 SOLVING FOR HEAD 
  LAMINAR PRECALCULATION
MODFLOW ITER.#  NEWTON-RAPHSON ITER.#   MAXIMUM NODE HEAD CHANGE
         1                   1                  0.0000000000


Solver Convergence Information:
                              HClose:  1.7763568E-15
                              RClose:  3.5527137E-15
                           L2-RClose:  7.1054409E-15
                         Rel-Vol-Err:  0.0
 
  LAMINAR PRECALCULATION
MODFLOW ITER.#  NEWTON-RAPHSON ITER.#   MAXIMUM NODE HEAD CHANGE
         1                   1                  0.0000000000

 NO OUTPUT CONTROL FOR STRESS PERIOD      5   TIME STEP     2
 
 
 CFPM1 CRITERION OF CONVERGENCE:     0.1000000E-05
 CFPM1 MAXIMUM NUMBER OF ITERATIONS:   100
 
 
 CFPM1 RESULTS +++++++++++++++++++++++++++++++++++++++++++++++++++++++
 
 STRESS PERIOD/TIME STEP           5           2
 
NUMBER OF NEWTON RHAPSON ITERATIONS:     1
 
 ------- RESULTS OF FLOW CALCULATION -------
 
NODE#  NODE HEAD[M]   MATRIX HEAD [M] EXCHANGE [M^3/S]      CAD STORAGE    CADS RECHARGE         PFPSFLOW  DIRECT RECHARGE            QWELL             FHLQ           CAUCHY        CAUCHY LQ              QLH             QFIX
    1  9.500    FIX      10.00000       -0.7853982E-03     0.000000         0.000000         0.000000         0.000000         0.000000         0.000000         0.000000         0.000000         0.000000       -0.7853982E-03
    2  9.500    FIX      9.761658       -0.8220224E-03     0.000000         0.000000         0.000000         0.000000         0.000000         0.000000         0.000000         0.000000         0.000000       -0.8220224E-03
    3  9.500    FIX      9.922446       -0.1327154E-02     0.000000         0.000000         0.000000         0.000000         0.000000         0.000000         0.000000         0.000000         0.000000       -0.1327154E-02
    4  9.500    FIX      11.00000       -0.2356194E-02     0.000000         0.000000         0.000000         0.000000         0.000000         0.000000         0.000000         0.000000         0.000000       -0.2356194E-02
 
TUBE  B  E  FLOW          Q [M^3/SEC]     DIAM.[M]        LEN.[M]        RE         RESIDENCE TIME [S]
    WARNING! TUBE    1 ACTIVE BUT NO FLOW
   1   1   2   LAMI.         0.00000        1.00000       10.00000        0.00000        0.00000
    WARNING! TUBE    2 ACTIVE BUT NO FLOW
   2   2   3   LAMI.         0.00000        1.00000       10.00000        0.00000        0.00000
    WARNING! TUBE    3 ACTIVE BUT NO FLOW
   3   3   4   LAMI.         0.00000        1.00000       10.00000        0.00000        0.00000
 

    BUDGET OF THE PIPE SYSTEM OF TIMESTEP    2 IN STRESS PERIOD    5
------------------------------------------------------------------------

  TOTAL SIMULATION TIME   420.000000000000      S
 
        CUMULATIVE VALUES (L**3)        RATES THIS TIME STEP (L**3/T)

            IN:                               IN:
     CONSTANT HEAD =   0.0000000          CONSTANT HEAD =   0.0000000    
   MATRIX EXCHANGE =   2.2221231        MATRIX EXCHANGE =  0.52907693E-02
     PIPE RECHARGE =   0.0000000          PIPE RECHARGE =   0.0000000    
       PFP STORAGE =   0.0000000            PFP STORAGE =   0.0000000    

     CUMULATIVE IN =   2.2221231               TOTAL IN =  0.52907693E-02

           OUT:                               OUT:
     CONSTANT HEAD =   2.2221231          CONSTANT HEAD =  0.52907693E-02
   MATRIX EXCHANGE =   0.0000000        MATRIX EXCHANGE =   0.0000000    
     PIPE RECHARGE =   0.0000000          PIPE RECHARGE =   0.0000000    
       PFP STORAGE =   0.0000000            PFP STORAGE =   0.0000000    

    CUMULATIVE OUT =   2.2221231              TOTAL OUT =  0.52907693E-02

          IN - OUT =   0.0000000               IN - OUT =   0.0000000    
     PERCENT ERROR =  0.00                PERCENT ERROR =  0.00


 
 ------------------------NODE WATER BUDGET-----------------------
  STRESS PERIOD           5  TIME STEP           2
 TOTAL SIMULATION TIME   420.000000000000     
 
 FLOW TO THE NODE IN M^3/S
 
 NODE     FIXED HEAD     RECHARGE        QWELL  MATRIX EXCH      STORAGE      TUBE_IN     TUBE_OUT         CADS     FHLQ(LQ)       CAUCHY   CAUCHY(LQ)          QLH     IN - OUT
    1   -0.78540E-03   0.0000       0.0000      0.78540E-03   0.0000       0.0000       0.0000       0.0000       0.0000       0.0000       0.0000       0.0000       0.0000    
    2   -0.82202E-03   0.0000       0.0000      0.82202E-03   0.0000       0.0000       0.0000       0.0000       0.0000       0.0000       0.0000       0.0000       0.0000    
    3   -0.13272E-02   0.0000       0.0000      0.13272E-02   0.0000       0.0000       0.0000       0.0000       0.0000       0.0000       0.0000       0.0000       0.0000    
    4   -0.23562E-02   0.0000       0.0000      0.23562E-02   0.0000       0.0000       0.0000       0.0000       0.0000       0.0000       0.0000       0.0000       0.0000    
     1 CALLS TO PCG ROUTINE FOR TIME STEP   2 IN STRESS PERIOD    5
     1 TOTAL ITERATIONS
 
 SOLVING FOR HEAD 
  LAMINAR PRECALCULATION
MODFLOW ITER.#  NEWTON-RAPHSON ITER.#   MAXIMUM NODE HEAD CHANGE
         1                   1                  0.0000000000


Solver Convergence Information:
                              HClose:  1.7763568E-15
                              RClose:  3.5527137E-15
                           L2-RClose:  7.1054274E-15
                         Rel-Vol-Err:  0.0
 
  LAMINAR PRECALCULATION
MODFLOW ITER.#  NEWTON-RAPHSON ITER.#   MAXIMUM NODE HEAD CHANGE
         1                   1                  0.0000000000

 NO OUTPUT CONTROL FOR STRESS PERIOD      5   TIME STEP     3
 
 
 CFPM1 CRITERION OF CONVERGENCE:     0.1000000E-05
 CFPM1 MAXIMUM NUMBER OF ITERATIONS:   100
 
 
 CFPM1 RESULTS +++++++++++++++++++++++++++++++++++++++++++++++++++++++
 
 STRESS PERIOD/TIME STEP           5           3
 
NUMBER OF NEWTON RHAPSON ITERATIONS:     1
 
 ------- RESULTS OF FLOW CALCULATION -------
 
NODE#  NODE HEAD[M]   MATRIX HEAD [M] EXCHANGE [M^3/S]      CAD STORAGE    CADS RECHARGE         PFPSFLOW  DIRECT RECHARGE            QWELL             FHLQ           CAUCHY        CAUCHY LQ              QLH             QFIX
    1  9.500    FIX      10.00000       -0.7853982E-03     0.000000         0.000000         0.000000         0.000000         0.000000         0.000000         0.000000         0.000000         0.000000       -0.7853982E-03
    2  9.500    FIX      9.761658       -0.8220224E-03     0.000000         0.000000         0.000000         0.000000         0.000000         0.000000         0.000000         0.000000         0.000000       -0.8220224E-03
    3  9.500    FIX      9.922446       -0.1327154E-02     0.000000         0.000000         0.000000         0.000000         0.000000         0.000000         0.000000         0.000000         0.000000       -0.1327154E-02
    4  9.500    FIX      11.00000       -0.2356194E-02     0.000000         0.000000         0.000000         0.000000         0.000000         0.000000         0.000000         0.000000         0.000000       -0.2356194E-02
 
TUBE  B  E  FLOW          Q [M^3/SEC]     DIAM.[M]        LEN.[M]        RE         RESIDENCE TIME [S]
    WARNING! TUBE    1 ACTIVE BUT NO FLOW
   1   1   2   LAMI.         0.00000        1.00000       10.00000        0.00000        0.00000
    WARNING! TUBE    2 ACTIVE BUT NO FLOW
   2   2   3   LAMI.         0.00000        1.00000       10.00000        0.00000        0.00000
    WARNING! TUBE    3 ACTIVE BUT NO FLOW
   3   3   4   LAMI.         0.00000        1.00000       10.00000        0.00000        0.00000
 

    BUDGET OF THE PIPE SYSTEM OF TIMESTEP    3 IN STRESS PERIOD    5
------------------------------------------------------------------------

  TOTAL SIMULATION TIME   430.000000000000      S
 
        CUMULATIVE VALUES (L**3)        RATES THIS TIME STEP (L**3/T)

            IN:                               IN:
     CONSTANT HEAD =   0.0000000          CONSTANT HEAD =   0.0000000    
   MATRIX EXCHANGE =   2.2750308        MATRIX EXCHANGE =  0.52907693E-02
     PIPE RECHARGE =   0.0000000          PIPE RECHARGE =   0.0000000    
       PFP STORAGE =   0.0000000            PFP STORAGE =   0.0000000    

     CUMULATIVE IN =   2.2750308               TOTAL IN =  0.52907693E-02

           OUT:                               OUT:
     CONSTANT HEAD =   2.2750308          CONSTANT HEAD =  0.52907693E-02
   MATRIX EXCHANGE =   0.0000000        MATRIX EXCHANGE =   0.0000000    
     PIPE RECHARGE =   0.0000000          PIPE RECHARGE =   0.0000000    
       PFP STORAGE =   0.0000000            PFP STORAGE =   0.0000000    

    CUMULATIVE OUT =   2.2750308              TOTAL OUT =  0.52907693E-02

          IN - OUT =   0.0000000               IN - OUT =   0.0000000    
     PERCENT ERROR =  0.00                PERCENT ERROR =  0.00


 
 ------------------------NODE WATER BUDGET-----------------------
  STRESS PERIOD           5  TIME STEP           3
 TOTAL SIMULATION TIME   430.000000000000     
 
 FLOW TO THE NODE IN M^3/S
 
 NODE     FIXED HEAD     RECHARGE        QWELL  MATRIX EXCH      STORAGE      TUBE_IN     TUBE_OUT         CADS     FHLQ(LQ)       CAUCHY   CAUCHY(LQ)          QLH     IN - OUT
    1   -0.78540E-03   0.0000       0.0000      0.78540E-03   0.0000       0.0000       0.0000       0.0000       0.0000       0.0000       0.0000       0.0000       0.0000    
    2   -0.82202E-03   0.0000       0.0000      0.82202E-03   0.0000       0.0000       0.0000       0.0000       0.0000       0.0000       0.0000       0.0000       0.0000    
    3   -0.13272E-02   0.0000       0.0000      0.13272E-02   0.0000       0.0000       0.0000       0.0000       0.0000       0.0000       0.0000       0.0000       0.0000    
    4   -0.23562E-02   0.0000       0.0000      0.23562E-02   0.0000       0.0000       0.0000       0.0000       0.0000       0.0000       0.0000       0.0000       0.0000    
     1 CALLS TO PCG ROUTINE FOR TIME STEP   3 IN STRESS PERIOD    5
     1 TOTAL ITERATIONS
 
 SOLVING FOR HEAD 
  LAMINAR PRECALCULATION
MODFLOW ITER.#  NEWTON-RAPHSON ITER.#   MAXIMUM NODE HEAD CHANGE
         1                   1                  0.0000000000


Solver Convergence Information:
                              HClose:  1.7763568E-15
                              RClose:  3.5527137E-15
                           L2-RClose:  7.1054545E-15
                         Rel-Vol-Err:  0.0
 
  LAMINAR PRECALCULATION
MODFLOW ITER.#  NEWTON-RAPHSON ITER.#   MAXIMUM NODE HEAD CHANGE
         1                   1                  0.0000000000

 NO OUTPUT CONTROL FOR STRESS PERIOD      5   TIME STEP     4
 
 
 CFPM1 CRITERION OF CONVERGENCE:     0.1000000E-05
 CFPM1 MAXIMUM NUMBER OF ITERATIONS:   100
 
 
 CFPM1 RESULTS +++++++++++++++++++++++++++++++++++++++++++++++++++++++
 
 STRESS PERIOD/TIME STEP           5           4
 
NUMBER OF NEWTON RHAPSON ITERATIONS:     1
 
 ------- RESULTS OF FLOW CALCULATION -------
 
NODE#  NODE HEAD[M]   MATRIX HEAD [M] EXCHANGE [M^3/S]      CAD STORAGE    CADS RECHARGE         PFPSFLOW  DIRECT RECHARGE            QWELL             FHLQ           CAUCHY        CAUCHY LQ              QLH             QFIX
    1  9.500    FIX      10.00000       -0.7853982E-03     0.000000         0.000000         0.000000         0.000000         0.000000         0.000000         0.000000         0.000000         0.000000       -0.7853982E-03
    2  9.500    FIX      9.761658       -0.8220224E-03     0.000000         0.000000         0.000000         0.000000         0.000000         0.000000         0.000000         0.000000         0.000000       -0.8220224E-03
    3  9.500    FIX      9.922446       -0.1327154E-02     0.000000         0.000000         0.000000         0.000000         0.000000         0.000000         0.000000         0.000000         0.000000       -0.1327154E-02
    4  9.500    FIX      11.00000       -0.2356194E-02     0.000000         0.000000         0.000000         0.000000         0.000000         0.000000         0.000000         0.000000         0.000000       -0.2356194E-02
 
TUBE  B  E  FLOW          Q [M^3/SEC]     DIAM.[M]        LEN.[M]        RE         RESIDENCE TIME [S]
    WARNING! TUBE    1 ACTIVE BUT NO FLOW
   1   1   2   LAMI.         0.00000        1.00000       10.00000        0.00000        0.00000
    WARNING! TUBE    2 ACTIVE BUT NO FLOW
   2   2   3   LAMI.         0.00000        1.00000       10.00000        0.00000        0.00000
    WARNING! TUBE    3 ACTIVE BUT NO FLOW
   3   3   4   LAMI.         0.00000        1.00000       10.00000        0.00000        0.00000
 

    BUDGET OF THE PIPE SYSTEM OF TIMESTEP    4 IN STRESS PERIOD    5
------------------------------------------------------------------------

  TOTAL SIMULATION TIME   440.000000000000      S
 
        CUMULATIVE VALUES (L**3)        RATES THIS TIME STEP (L**3/T)

            IN:                               IN:
     CONSTANT HEAD =   0.0000000          CONSTANT HEAD =   0.0000000    
   MATRIX EXCHANGE =   2.3279385        MATRIX EXCHANGE =  0.52907693E-02
     PIPE RECHARGE =   0.0000000          PIPE RECHARGE =   0.0000000    
       PFP STORAGE =   0.0000000            PFP STORAGE =   0.0000000    

     CUMULATIVE IN =   2.3279385               TOTAL IN =  0.52907693E-02

           OUT:                               OUT:
     CONSTANT HEAD =   2.3279385          CONSTANT HEAD =  0.52907693E-02
   MATRIX EXCHANGE =   0.0000000        MATRIX EXCHANGE =   0.0000000    
     PIPE RECHARGE =   0.0000000          PIPE RECHARGE =   0.0000000    
       PFP STORAGE =   0.0000000            PFP STORAGE =   0.0000000    

    CUMULATIVE OUT =   2.3279385              TOTAL OUT =  0.52907693E-02

          IN - OUT =   0.0000000               IN - OUT =   0.0000000    
     PERCENT ERROR =  0.00                PERCENT ERROR =  0.00


 
 ------------------------NODE WATER BUDGET-----------------------
  STRESS PERIOD           5  TIME STEP           4
 TOTAL SIMULATION TIME   440.000000000000     
 
 FLOW TO THE NODE IN M^3/S
 
 NODE     FIXED HEAD     RECHARGE        QWELL  MATRIX EXCH      STORAGE      TUBE_IN     TUBE_OUT         CADS     FHLQ(LQ)       CAUCHY   CAUCHY(LQ)          QLH     IN - OUT
    1   -0.78540E-03   0.0000       0.0000      0.78540E-03   0.0000       0.0000       0.0000       0.0000       0.0000       0.0000       0.0000       0.0000       0.0000    
    2   -0.82202E-03   0.0000       0.0000      0.82202E-03   0.0000       0.0000       0.0000       0.0000       0.0000       0.0000       0.0000       0.0000       0.0000    
    3   -0.13272E-02   0.0000       0.0000      0.13272E-02   0.0000       0.0000       0.0000       0.0000       0.0000       0.0000       0.0000       0.0000       0.0000    
    4   -0.23562E-02   0.0000       0.0000      0.23562E-02   0.0000       0.0000       0.0000       0.0000       0.0000       0.0000       0.0000       0.0000       0.0000    
     1 CALLS TO PCG ROUTINE FOR TIME STEP   4 IN STRESS PERIOD    5
     1 TOTAL ITERATIONS
 
 SOLVING FOR HEAD 
  LAMINAR PRECALCULATION
MODFLOW ITER.#  NEWTON-RAPHSON ITER.#   MAXIMUM NODE HEAD CHANGE
         1                   1                  0.0000000000


Solver Convergence Information:
                              HClose:  1.7763568E-15
                              RClose:  3.5527137E-15
                           L2-RClose:  7.1054409E-15
                         Rel-Vol-Err:  0.0
 
  LAMINAR PRECALCULATION
MODFLOW ITER.#  NEWTON-RAPHSON ITER.#   MAXIMUM NODE HEAD CHANGE
         1                   1                  0.0000000000

 NO OUTPUT CONTROL FOR STRESS PERIOD      5   TIME STEP     5
 
 
 CFPM1 CRITERION OF CONVERGENCE:     0.1000000E-05
 CFPM1 MAXIMUM NUMBER OF ITERATIONS:   100
 
 
 CFPM1 RESULTS +++++++++++++++++++++++++++++++++++++++++++++++++++++++
 
 STRESS PERIOD/TIME STEP           5           5
 
NUMBER OF NEWTON RHAPSON ITERATIONS:     1
 
 ------- RESULTS OF FLOW CALCULATION -------
 
NODE#  NODE HEAD[M]   MATRIX HEAD [M] EXCHANGE [M^3/S]      CAD STORAGE    CADS RECHARGE         PFPSFLOW  DIRECT RECHARGE            QWELL             FHLQ           CAUCHY        CAUCHY LQ              QLH             QFIX
    1  9.500    FIX      10.00000       -0.7853982E-03     0.000000         0.000000         0.000000         0.000000         0.000000         0.000000         0.000000         0.000000         0.000000       -0.7853982E-03
    2  9.500    FIX      9.761658       -0.8220224E-03     0.000000         0.000000         0.000000         0.000000         0.000000         0.000000         0.000000         0.000000         0.000000       -0.8220224E-03
    3  9.500    FIX      9.922446       -0.1327154E-02     0.000000         0.000000         0.000000         0.000000         0.000000         0.000000         0.000000         0.000000         0.000000       -0.1327154E-02
    4  9.500    FIX      11.00000       -0.2356194E-02     0.000000         0.000000         0.000000         0.000000         0.000000         0.000000         0.000000         0.000000         0.000000       -0.2356194E-02
 
TUBE  B  E  FLOW          Q [M^3/SEC]     DIAM.[M]        LEN.[M]        RE         RESIDENCE TIME [S]
    WARNING! TUBE    1 ACTIVE BUT NO FLOW
   1   1   2   LAMI.         0.00000        1.00000       10.00000        0.00000        0.00000
    WARNING! TUBE    2 ACTIVE BUT NO FLOW
   2   2   3   LAMI.         0.00000        1.00000       10.00000        0.00000        0.00000
    WARNING! TUBE    3 ACTIVE BUT NO FLOW
   3   3   4   LAMI.         0.00000        1.00000       10.00000        0.00000        0.00000
 

    BUDGET OF THE PIPE SYSTEM OF TIMESTEP    5 IN STRESS PERIOD    5
------------------------------------------------------------------------

  TOTAL SIMULATION TIME   450.000000000000      S
 
        CUMULATIVE VALUES (L**3)        RATES THIS TIME STEP (L**3/T)

            IN:                               IN:
     CONSTANT HEAD =   0.0000000          CONSTANT HEAD =   0.0000000    
   MATRIX EXCHANGE =   2.3808462        MATRIX EXCHANGE =  0.52907693E-02
     PIPE RECHARGE =   0.0000000          PIPE RECHARGE =   0.0000000    
       PFP STORAGE =   0.0000000            PFP STORAGE =   0.0000000    

     CUMULATIVE IN =   2.3808462               TOTAL IN =  0.52907693E-02

           OUT:                               OUT:
     CONSTANT HEAD =   2.3808462          CONSTANT HEAD =  0.52907693E-02
   MATRIX EXCHANGE =   0.0000000        MATRIX EXCHANGE =   0.0000000    
     PIPE RECHARGE =   0.0000000          PIPE RECHARGE =   0.0000000    
       PFP STORAGE =   0.0000000            PFP STORAGE =   0.0000000    

    CUMULATIVE OUT =   2.3808462              TOTAL OUT =  0.52907693E-02

          IN - OUT =   0.0000000               IN - OUT =   0.0000000    
     PERCENT ERROR =  0.00                PERCENT ERROR =  0.00


 
 ------------------------NODE WATER BUDGET-----------------------
  STRESS PERIOD           5  TIME STEP           5
 TOTAL SIMULATION TIME   450.000000000000     
 
 FLOW TO THE NODE IN M^3/S
 
 NODE     FIXED HEAD     RECHARGE        QWELL  MATRIX EXCH      STORAGE      TUBE_IN     TUBE_OUT         CADS     FHLQ(LQ)       CAUCHY   CAUCHY(LQ)          QLH     IN - OUT
    1   -0.78540E-03   0.0000       0.0000      0.78540E-03   0.0000       0.0000       0.0000       0.0000       0.0000       0.0000       0.0000       0.0000       0.0000    
    2   -0.82202E-03   0.0000       0.0000      0.82202E-03   0.0000       0.0000       0.0000       0.0000       0.0000       0.0000       0.0000       0.0000       0.0000    
    3   -0.13272E-02   0.0000       0.0000      0.13272E-02   0.0000       0.0000       0.0000       0.0000       0.0000       0.0000       0.0000       0.0000       0.0000    
    4   -0.23562E-02   0.0000       0.0000      0.23562E-02   0.0000       0.0000       0.0000       0.0000       0.0000       0.0000       0.0000       0.0000       0.0000    
     1 CALLS TO PCG ROUTINE FOR TIME STEP   5 IN STRESS PERIOD    5
     1 TOTAL ITERATIONS

 MAXIMUM HEAD CHANGE FOR EACH ITERATION (1 INDICATES THE FIRST INNER ITERATION):

    HEAD CHANGE    HEAD CHANGE    HEAD CHANGE    HEAD CHANGE    HEAD CHANGE 
   LAYER,ROW,COL  LAYER,ROW,COL  LAYER,ROW,COL  LAYER,ROW,COL  LAYER,ROW,COL
 ---------------------------------------------------------------------------
  1  0.2013E-14
   (  1,  3,  3)

 MAXIMUM RESIDUAL FOR EACH ITERATION (1 INDICATES THE FIRST INNER ITERATION):

    RESIDUAL       RESIDUAL       RESIDUAL       RESIDUAL       RESIDUAL    
   LAYER,ROW,COL  LAYER,ROW,COL  LAYER,ROW,COL  LAYER,ROW,COL  LAYER,ROW,COL
 ---------------------------------------------------------------------------
  1 -0.1452E-18
   (  1,  2,  4)


 
 SOLVING FOR HEAD 
  LAMINAR PRECALCULATION
MODFLOW ITER.#  NEWTON-RAPHSON ITER.#   MAXIMUM NODE HEAD CHANGE
         1                   1                  0.0000000000


Solver Convergence Information:
                              HClose:  1.7763568E-15
                              RClose:  3.5527137E-15
                           L2-RClose:  7.1054274E-15
                         Rel-Vol-Err:  0.0
 
  LAMINAR PRECALCULATION
MODFLOW ITER.#  NEWTON-RAPHSON ITER.#   MAXIMUM NODE HEAD CHANGE
         1                   1                  0.0000000000

 NO OUTPUT CONTROL FOR STRESS PERIOD      5   TIME STEP     6
 
 
 CFPM1 CRITERION OF CONVERGENCE:     0.1000000E-05
 CFPM1 MAXIMUM NUMBER OF ITERATIONS:   100
 
 
 CFPM1 RESULTS +++++++++++++++++++++++++++++++++++++++++++++++++++++++
 
 STRESS PERIOD/TIME STEP           5           6
 
NUMBER OF NEWTON RHAPSON ITERATIONS:     1
 
 ------- RESULTS OF FLOW CALCULATION -------
 
NODE#  NODE HEAD[M]   MATRIX HEAD [M] EXCHANGE [M^3/S]      CAD STORAGE    CADS RECHARGE         PFPSFLOW  DIRECT RECHARGE            QWELL             FHLQ           CAUCHY        CAUCHY LQ              QLH             QFIX
    1  9.500    FIX      10.00000       -0.7853982E-03     0.000000         0.000000         0.000000         0.000000         0.000000         0.000000         0.000000         0.000000         0.000000       -0.7853982E-03
    2  9.500    FIX      9.761658       -0.8220224E-03     0.000000         0.000000         0.000000         0.000000         0.000000         0.000000         0.000000         0.000000         0.000000       -0.8220224E-03
    3  9.500    FIX      9.922446       -0.1327154E-02     0.000000         0.000000         0.000000         0.000000         0.000000         0.000000         0.000000         0.000000         0.000000       -0.1327154E-02
    4  9.500    FIX      11.00000       -0.2356194E-02     0.000000         0.000000         0.000000         0.000000         0.000000         0.000000         0.000000         0.000000         0.000000       -0.2356194E-02
 
TUBE  B  E  FLOW          Q [M^3/SEC]     DIAM.[M]        LEN.[M]        RE         RESIDENCE TIME [S]
    WARNING! TUBE    1 ACTIVE BUT NO FLOW
   1   1   2   LAMI.         0.00000        1.00000       10.00000        0.00000        0.00000
    WARNING! TUBE    2 ACTIVE BUT NO FLOW
   2   2   3   LAMI.         0.00000        1.00000       10.00000        0.00000        0.00000
    WARNING! TUBE    3 ACTIVE BUT NO FLOW
   3   3   4   LAMI.         0.00000        1.00000       10.00000        0.00000        0.00000
 

    BUDGET OF THE PIPE SYSTEM OF TIMESTEP    6 IN STRESS PERIOD    5
------------------------------------------------------------------------

  TOTAL SIMULATION TIME   460.000000000000      S
 
        CUMULATIVE VALUES (L**3)        RATES THIS TIME STEP (L**3/T)

            IN:                               IN:
     CONSTANT HEAD =   0.0000000          CONSTANT HEAD =   0.0000000    
   MATRIX EXCHANGE =   2.4337539        MATRIX EXCHANGE =  0.52907693E-02
     PIPE RECHARGE =   0.0000000          PIPE RECHARGE =   0.0000000    
       PFP STORAGE =   0.0000000            PFP STORAGE =   0.0000000    

     CUMULATIVE IN =   2.4337539               TOTAL IN =  0.52907693E-02

           OUT:                               OUT:
     CONSTANT HEAD =   2.4337539          CONSTANT HEAD =  0.52907693E-02
   MATRIX EXCHANGE =   0.0000000        MATRIX EXCHANGE =   0.0000000    
     PIPE RECHARGE =   0.0000000          PIPE RECHARGE =   0.0000000    
       PFP STORAGE =   0.0000000            PFP STORAGE =   0.0000000    

    CUMULATIVE OUT =   2.4337539              TOTAL OUT =  0.52907693E-02

          IN - OUT =   0.0000000               IN - OUT =   0.0000000    
     PERCENT ERROR =  0.00                PERCENT ERROR =  0.00


 
 ------------------------NODE WATER BUDGET-----------------------
  STRESS PERIOD           5  TIME STEP           6
 TOTAL SIMULATION TIME   460.000000000000     
 
 FLOW TO THE NODE IN M^3/S
 
 NODE     FIXED HEAD     RECHARGE        QWELL  MATRIX EXCH      STORAGE      TUBE_IN     TUBE_OUT         CADS     FHLQ(LQ)       CAUCHY   CAUCHY(LQ)          QLH     IN - OUT
    1   -0.78540E-03   0.0000       0.0000      0.78540E-03   0.0000       0.0000       0.0000       0.0000       0.0000       0.0000       0.0000       0.0000       0.0000    
    2   -0.82202E-03   0.0000       0.0000      0.82202E-03   0.0000       0.0000       0.0000       0.0000       0.0000       0.0000       0.0000       0.0000       0.0000    
    3   -0.13272E-02   0.0000       0.0000      0.13272E-02   0.0000       0.0000       0.0000       0.0000       0.0000       0.0000       0.0000       0.0000       0.0000    
    4   -0.23562E-02   0.0000       0.0000      0.23562E-02   0.0000       0.0000       0.0000       0.0000       0.0000       0.0000       0.0000       0.0000       0.0000    
     1 CALLS TO PCG ROUTINE FOR TIME STEP   6 IN STRESS PERIOD    5
     1 TOTAL ITERATIONS
 
 SOLVING FOR HEAD 
  LAMINAR PRECALCULATION
MODFLOW ITER.#  NEWTON-RAPHSON ITER.#   MAXIMUM NODE HEAD CHANGE
         1                   1                  0.0000000000


Solver Convergence Information:
                              HClose:  1.7763568E-15
                              RClose:  3.5527137E-15
                           L2-RClose:  7.1054545E-15
                         Rel-Vol-Err:  0.0
 
  LAMINAR PRECALCULATION
MODFLOW ITER.#  NEWTON-RAPHSON ITER.#   MAXIMUM NODE HEAD CHANGE
         1                   1                  0.0000000000

 NO OUTPUT CONTROL FOR STRESS PERIOD      5   TIME STEP     7
 
 
 CFPM1 CRITERION OF CONVERGENCE:     0.1000000E-05
 CFPM1 MAXIMUM NUMBER OF ITERATIONS:   100
 
 
 CFPM1 RESULTS +++++++++++++++++++++++++++++++++++++++++++++++++++++++
 
 STRESS PERIOD/TIME STEP           5           7
 
NUMBER OF NEWTON RHAPSON ITERATIONS:     1
 
 ------- RESULTS OF FLOW CALCULATION -------
 
NODE#  NODE HEAD[M]   MATRIX HEAD [M] EXCHANGE [M^3/S]      CAD STORAGE    CADS RECHARGE         PFPSFLOW  DIRECT RECHARGE            QWELL             FHLQ           CAUCHY        CAUCHY LQ              QLH             QFIX
    1  9.500    FIX      10.00000       -0.7853982E-03     0.000000         0.000000         0.000000         0.000000         0.000000         0.000000         0.000000         0.000000         0.000000       -0.7853982E-03
    2  9.500    FIX      9.761658       -0.8220224E-03     0.000000         0.000000         0.000000         0.000000         0.000000         0.000000         0.000000         0.000000         0.000000       -0.8220224E-03
    3  9.500    FIX      9.922446       -0.1327154E-02     0.000000         0.000000         0.000000         0.000000         0.000000         0.000000         0.000000         0.000000         0.000000       -0.1327154E-02
    4  9.500    FIX      11.00000       -0.2356194E-02     0.000000         0.000000         0.000000         0.000000         0.000000         0.000000         0.000000         0.000000         0.000000       -0.2356194E-02
 
TUBE  B  E  FLOW          Q [M^3/SEC]     DIAM.[M]        LEN.[M]        RE         RESIDENCE TIME [S]
    WARNING! TUBE    1 ACTIVE BUT NO FLOW
   1   1   2   LAMI.         0.00000        1.00000       10.00000        0.00000        0.00000
    WARNING! TUBE    2 ACTIVE BUT NO FLOW
   2   2   3   LAMI.         0.00000        1.00000       10.00000        0.00000        0.00000
    WARNING! TUBE    3 ACTIVE BUT NO FLOW
   3   3   4   LAMI.         0.00000        1.00000       10.00000        0.00000        0.00000
 

    BUDGET OF THE PIPE SYSTEM OF TIMESTEP    7 IN STRESS PERIOD    5
------------------------------------------------------------------------

  TOTAL SIMULATION TIME   470.000000000000      S
 
        CUMULATIVE VALUES (L**3)        RATES THIS TIME STEP (L**3/T)

            IN:                               IN:
     CONSTANT HEAD =   0.0000000          CONSTANT HEAD =   0.0000000    
   MATRIX EXCHANGE =   2.4866616        MATRIX EXCHANGE =  0.52907693E-02
     PIPE RECHARGE =   0.0000000          PIPE RECHARGE =   0.0000000    
       PFP STORAGE =   0.0000000            PFP STORAGE =   0.0000000    

     CUMULATIVE IN =   2.4866616               TOTAL IN =  0.52907693E-02

           OUT:                               OUT:
     CONSTANT HEAD =   2.4866616          CONSTANT HEAD =  0.52907693E-02
   MATRIX EXCHANGE =   0.0000000        MATRIX EXCHANGE =   0.0000000    
     PIPE RECHARGE =   0.0000000          PIPE RECHARGE =   0.0000000    
       PFP STORAGE =   0.0000000            PFP STORAGE =   0.0000000    

    CUMULATIVE OUT =   2.4866616              TOTAL OUT =  0.52907693E-02

          IN - OUT =   0.0000000               IN - OUT =   0.0000000    
     PERCENT ERROR =  0.00                PERCENT ERROR =  0.00


 
 ------------------------NODE WATER BUDGET-----------------------
  STRESS PERIOD           5  TIME STEP           7
 TOTAL SIMULATION TIME   470.000000000000     
 
 FLOW TO THE NODE IN M^3/S
 
 NODE     FIXED HEAD     RECHARGE        QWELL  MATRIX EXCH      STORAGE      TUBE_IN     TUBE_OUT         CADS     FHLQ(LQ)       CAUCHY   CAUCHY(LQ)          QLH     IN - OUT
    1   -0.78540E-03   0.0000       0.0000      0.78540E-03   0.0000       0.0000       0.0000       0.0000       0.0000       0.0000       0.0000       0.0000       0.0000    
    2   -0.82202E-03   0.0000       0.0000      0.82202E-03   0.0000       0.0000       0.0000       0.0000       0.0000       0.0000       0.0000       0.0000       0.0000    
    3   -0.13272E-02   0.0000       0.0000      0.13272E-02   0.0000       0.0000       0.0000       0.0000       0.0000       0.0000       0.0000       0.0000       0.0000    
    4   -0.23562E-02   0.0000       0.0000      0.23562E-02   0.0000       0.0000       0.0000       0.0000       0.0000       0.0000       0.0000       0.0000       0.0000    
     1 CALLS TO PCG ROUTINE FOR TIME STEP   7 IN STRESS PERIOD    5
     1 TOTAL ITERATIONS
 
 SOLVING FOR HEAD 
  LAMINAR PRECALCULATION
MODFLOW ITER.#  NEWTON-RAPHSON ITER.#   MAXIMUM NODE HEAD CHANGE
         1                   1                  0.0000000000


Solver Convergence Information:
                              HClose:  1.7763568E-15
                              RClose:  3.5527137E-15
                           L2-RClose:  7.1054409E-15
                         Rel-Vol-Err:  0.0
 
  LAMINAR PRECALCULATION
MODFLOW ITER.#  NEWTON-RAPHSON ITER.#   MAXIMUM NODE HEAD CHANGE
         1                   1                  0.0000000000

 NO OUTPUT CONTROL FOR STRESS PERIOD      5   TIME STEP     8
 
 
 CFPM1 CRITERION OF CONVERGENCE:     0.1000000E-05
 CFPM1 MAXIMUM NUMBER OF ITERATIONS:   100
 
 
 CFPM1 RESULTS +++++++++++++++++++++++++++++++++++++++++++++++++++++++
 
 STRESS PERIOD/TIME STEP           5           8
 
NUMBER OF NEWTON RHAPSON ITERATIONS:     1
 
 ------- RESULTS OF FLOW CALCULATION -------
 
NODE#  NODE HEAD[M]   MATRIX HEAD [M] EXCHANGE [M^3/S]      CAD STORAGE    CADS RECHARGE         PFPSFLOW  DIRECT RECHARGE            QWELL             FHLQ           CAUCHY        CAUCHY LQ              QLH             QFIX
    1  9.500    FIX      10.00000       -0.7853982E-03     0.000000         0.000000         0.000000         0.000000         0.000000         0.000000         0.000000         0.000000         0.000000       -0.7853982E-03
    2  9.500    FIX      9.761658       -0.8220224E-03     0.000000         0.000000         0.000000         0.000000         0.000000         0.000000         0.000000         0.000000         0.000000       -0.8220224E-03
    3  9.500    FIX      9.922446       -0.1327154E-02     0.000000         0.000000         0.000000         0.000000         0.000000         0.000000         0.000000         0.000000         0.000000       -0.1327154E-02
    4  9.500    FIX      11.00000       -0.2356194E-02     0.000000         0.000000         0.000000         0.000000         0.000000         0.000000         0.000000         0.000000         0.000000       -0.2356194E-02
 
TUBE  B  E  FLOW          Q [M^3/SEC]     DIAM.[M]        LEN.[M]        RE         RESIDENCE TIME [S]
    WARNING! TUBE    1 ACTIVE BUT NO FLOW
   1   1   2   LAMI.         0.00000        1.00000       10.00000        0.00000        0.00000
    WARNING! TUBE    2 ACTIVE BUT NO FLOW
   2   2   3   LAMI.         0.00000        1.00000       10.00000        0.00000        0.00000
    WARNING! TUBE    3 ACTIVE BUT NO FLOW
   3   3   4   LAMI.         0.00000        1.00000       10.00000        0.00000        0.00000
 

    BUDGET OF THE PIPE SYSTEM OF TIMESTEP    8 IN STRESS PERIOD    5
------------------------------------------------------------------------

  TOTAL SIMULATION TIME   480.000000000000      S
 
        CUMULATIVE VALUES (L**3)        RATES THIS TIME STEP (L**3/T)

            IN:                               IN:
     CONSTANT HEAD =   0.0000000          CONSTANT HEAD =   0.0000000    
   MATRIX EXCHANGE =   2.5395693        MATRIX EXCHANGE =  0.52907693E-02
     PIPE RECHARGE =   0.0000000          PIPE RECHARGE =   0.0000000    
       PFP STORAGE =   0.0000000            PFP STORAGE =   0.0000000    

     CUMULATIVE IN =   2.5395693               TOTAL IN =  0.52907693E-02

           OUT:                               OUT:
     CONSTANT HEAD =   2.5395693          CONSTANT HEAD =  0.52907693E-02
   MATRIX EXCHANGE =   0.0000000        MATRIX EXCHANGE =   0.0000000    
     PIPE RECHARGE =   0.0000000          PIPE RECHARGE =   0.0000000    
       PFP STORAGE =   0.0000000            PFP STORAGE =   0.0000000    

    CUMULATIVE OUT =   2.5395693              TOTAL OUT =  0.52907693E-02

          IN - OUT =   0.0000000               IN - OUT =   0.0000000    
     PERCENT ERROR =  0.00                PERCENT ERROR =  0.00


 
 ------------------------NODE WATER BUDGET-----------------------
  STRESS PERIOD           5  TIME STEP           8
 TOTAL SIMULATION TIME   480.000000000000     
 
 FLOW TO THE NODE IN M^3/S
 
 NODE     FIXED HEAD     RECHARGE        QWELL  MATRIX EXCH      STORAGE      TUBE_IN     TUBE_OUT         CADS     FHLQ(LQ)       CAUCHY   CAUCHY(LQ)          QLH     IN - OUT
    1   -0.78540E-03   0.0000       0.0000      0.78540E-03   0.0000       0.0000       0.0000       0.0000       0.0000       0.0000       0.0000       0.0000       0.0000    
    2   -0.82202E-03   0.0000       0.0000      0.82202E-03   0.0000       0.0000       0.0000       0.0000       0.0000       0.0000       0.0000       0.0000       0.0000    
    3   -0.13272E-02   0.0000       0.0000      0.13272E-02   0.0000       0.0000       0.0000       0.0000       0.0000       0.0000       0.0000       0.0000       0.0000    
    4   -0.23562E-02   0.0000       0.0000      0.23562E-02   0.0000       0.0000       0.0000       0.0000       0.0000       0.0000       0.0000       0.0000       0.0000    
     1 CALLS TO PCG ROUTINE FOR TIME STEP   8 IN STRESS PERIOD    5
     1 TOTAL ITERATIONS
 
 SOLVING FOR HEAD 
  LAMINAR PRECALCULATION
MODFLOW ITER.#  NEWTON-RAPHSON ITER.#   MAXIMUM NODE HEAD CHANGE
         1                   1                  0.0000000000


Solver Convergence Information:
                              HClose:  1.7763568E-15
                              RClose:  3.5527137E-15
                           L2-RClose:  7.1054274E-15
                         Rel-Vol-Err:  0.0
 
  LAMINAR PRECALCULATION
MODFLOW ITER.#  NEWTON-RAPHSON ITER.#   MAXIMUM NODE HEAD CHANGE
         1                   1                  0.0000000000

 NO OUTPUT CONTROL FOR STRESS PERIOD      5   TIME STEP     9
 
 
 CFPM1 CRITERION OF CONVERGENCE:     0.1000000E-05
 CFPM1 MAXIMUM NUMBER OF ITERATIONS:   100
 
 
 CFPM1 RESULTS +++++++++++++++++++++++++++++++++++++++++++++++++++++++
 
 STRESS PERIOD/TIME STEP           5           9
 
NUMBER OF NEWTON RHAPSON ITERATIONS:     1
 
 ------- RESULTS OF FLOW CALCULATION -------
 
NODE#  NODE HEAD[M]   MATRIX HEAD [M] EXCHANGE [M^3/S]      CAD STORAGE    CADS RECHARGE         PFPSFLOW  DIRECT RECHARGE            QWELL             FHLQ           CAUCHY        CAUCHY LQ              QLH             QFIX
    1  9.500    FIX      10.00000       -0.7853982E-03     0.000000         0.000000         0.000000         0.000000         0.000000         0.000000         0.000000         0.000000         0.000000       -0.7853982E-03
    2  9.500    FIX      9.761658       -0.8220224E-03     0.000000         0.000000         0.000000         0.000000         0.000000         0.000000         0.000000         0.000000         0.000000       -0.8220224E-03
    3  9.500    FIX      9.922446       -0.1327154E-02     0.000000         0.000000         0.000000         0.000000         0.000000         0.000000         0.000000         0.000000         0.000000       -0.1327154E-02
    4  9.500    FIX      11.00000       -0.2356194E-02     0.000000         0.000000         0.000000         0.000000         0.000000         0.000000         0.000000         0.000000         0.000000       -0.2356194E-02
 
TUBE  B  E  FLOW          Q [M^3/SEC]     DIAM.[M]        LEN.[M]        RE         RESIDENCE TIME [S]
    WARNING! TUBE    1 ACTIVE BUT NO FLOW
   1   1   2   LAMI.         0.00000        1.00000       10.00000        0.00000        0.00000
    WARNING! TUBE    2 ACTIVE BUT NO FLOW
   2   2   3   LAMI.         0.00000        1.00000       10.00000        0.00000        0.00000
    WARNING! TUBE    3 ACTIVE BUT NO FLOW
   3   3   4   LAMI.         0.00000        1.00000       10.00000        0.00000        0.00000
 

    BUDGET OF THE PIPE SYSTEM OF TIMESTEP    9 IN STRESS PERIOD    5
------------------------------------------------------------------------

  TOTAL SIMULATION TIME   490.000000000000      S
 
        CUMULATIVE VALUES (L**3)        RATES THIS TIME STEP (L**3/T)

            IN:                               IN:
     CONSTANT HEAD =   0.0000000          CONSTANT HEAD =   0.0000000    
   MATRIX EXCHANGE =   2.5924770        MATRIX EXCHANGE =  0.52907693E-02
     PIPE RECHARGE =   0.0000000          PIPE RECHARGE =   0.0000000    
       PFP STORAGE =   0.0000000            PFP STORAGE =   0.0000000    

     CUMULATIVE IN =   2.5924770               TOTAL IN =  0.52907693E-02

           OUT:                               OUT:
     CONSTANT HEAD =   2.5924770          CONSTANT HEAD =  0.52907693E-02
   MATRIX EXCHANGE =   0.0000000        MATRIX EXCHANGE =   0.0000000    
     PIPE RECHARGE =   0.0000000          PIPE RECHARGE =   0.0000000    
       PFP STORAGE =   0.0000000            PFP STORAGE =   0.0000000    

    CUMULATIVE OUT =   2.5924770              TOTAL OUT =  0.52907693E-02

          IN - OUT =   0.0000000               IN - OUT =   0.0000000    
     PERCENT ERROR =  0.00                PERCENT ERROR =  0.00


 
 ------------------------NODE WATER BUDGET-----------------------
  STRESS PERIOD           5  TIME STEP           9
 TOTAL SIMULATION TIME   490.000000000000     
 
 FLOW TO THE NODE IN M^3/S
 
 NODE     FIXED HEAD     RECHARGE        QWELL  MATRIX EXCH      STORAGE      TUBE_IN     TUBE_OUT         CADS     FHLQ(LQ)       CAUCHY   CAUCHY(LQ)          QLH     IN - OUT
    1   -0.78540E-03   0.0000       0.0000      0.78540E-03   0.0000       0.0000       0.0000       0.0000       0.0000       0.0000       0.0000       0.0000       0.0000    
    2   -0.82202E-03   0.0000       0.0000      0.82202E-03   0.0000       0.0000       0.0000       0.0000       0.0000       0.0000       0.0000       0.0000       0.0000    
    3   -0.13272E-02   0.0000       0.0000      0.13272E-02   0.0000       0.0000       0.0000       0.0000       0.0000       0.0000       0.0000       0.0000       0.0000    
    4   -0.23562E-02   0.0000       0.0000      0.23562E-02   0.0000       0.0000       0.0000       0.0000       0.0000       0.0000       0.0000       0.0000       0.0000    
     1 CALLS TO PCG ROUTINE FOR TIME STEP   9 IN STRESS PERIOD    5
     1 TOTAL ITERATIONS
 
 SOLVING FOR HEAD 
  LAMINAR PRECALCULATION
MODFLOW ITER.#  NEWTON-RAPHSON ITER.#   MAXIMUM NODE HEAD CHANGE
         1                   1                  0.0000000000


Solver Convergence Information:
                              HClose:  1.7763568E-15
                              RClose:  3.5527137E-15
                           L2-RClose:  7.1054545E-15
                         Rel-Vol-Err:  0.0
 
  LAMINAR PRECALCULATION
MODFLOW ITER.#  NEWTON-RAPHSON ITER.#   MAXIMUM NODE HEAD CHANGE
         1                   1                  0.0000000000

 OUTPUT CONTROL FOR STRESS PERIOD      5   TIME STEP    10
    PRINT HEAD FOR ALL LAYERS
    SAVE HEAD FOR ALL LAYERS
    SAVE BUDGET
 UBDSV1 SAVING "         STORAGE" ON UNIT 50 AT TIME STEP 10, STRESS PERIOD 5
 UBDSV2 SAVING "   CONSTANT HEAD" ON UNIT 50 AT TIME STEP 10, STRESS PERIOD 5
 UBDSV1 SAVING "FLOW RIGHT FACE " ON UNIT 50 AT TIME STEP 10, STRESS PERIOD 5
 UBDSV1 SAVING "FLOW FRONT FACE " ON UNIT 50 AT TIME STEP 10, STRESS PERIOD 5
 
 
 CFPM1 CRITERION OF CONVERGENCE:     0.1000000E-05
 CFPM1 MAXIMUM NUMBER OF ITERATIONS:   100
 
 
 CFPM1 RESULTS +++++++++++++++++++++++++++++++++++++++++++++++++++++++
 
 STRESS PERIOD/TIME STEP           5          10
 
NUMBER OF NEWTON RHAPSON ITERATIONS:     1
 
 ------- RESULTS OF FLOW CALCULATION -------
 
NODE#  NODE HEAD[M]   MATRIX HEAD [M] EXCHANGE [M^3/S]      CAD STORAGE    CADS RECHARGE         PFPSFLOW  DIRECT RECHARGE            QWELL             FHLQ           CAUCHY        CAUCHY LQ              QLH             QFIX
    1  9.500    FIX      10.00000       -0.7853982E-03     0.000000         0.000000         0.000000         0.000000         0.000000         0.000000         0.000000         0.000000         0.000000       -0.7853982E-03
    2  9.500    FIX      9.761658       -0.8220224E-03     0.000000         0.000000         0.000000         0.000000         0.000000         0.000000         0.000000         0.000000         0.000000       -0.8220224E-03
    3  9.500    FIX      9.922446       -0.1327154E-02     0.000000         0.000000         0.000000         0.000000         0.000000         0.000000         0.000000         0.000000         0.000000       -0.1327154E-02
    4  9.500    FIX      11.00000       -0.2356194E-02     0.000000         0.000000         0.000000         0.000000         0.000000         0.000000         0.000000         0.000000         0.000000       -0.2356194E-02
 
TUBE  B  E  FLOW          Q [M^3/SEC]     DIAM.[M]        LEN.[M]        RE         RESIDENCE TIME [S]
    WARNING! TUBE    1 ACTIVE BUT NO FLOW
   1   1   2   LAMI.         0.00000        1.00000       10.00000        0.00000        0.00000
    WARNING! TUBE    2 ACTIVE BUT NO FLOW
   2   2   3   LAMI.         0.00000        1.00000       10.00000        0.00000        0.00000
    WARNING! TUBE    3 ACTIVE BUT NO FLOW
   3   3   4   LAMI.         0.00000        1.00000       10.00000        0.00000        0.00000
 

    BUDGET OF THE PIPE SYSTEM OF TIMESTEP   10 IN STRESS PERIOD    5
------------------------------------------------------------------------

  TOTAL SIMULATION TIME   500.000000000000      S
 
        CUMULATIVE VALUES (L**3)        RATES THIS TIME STEP (L**3/T)

            IN:                               IN:
     CONSTANT HEAD =   0.0000000          CONSTANT HEAD =   0.0000000    
   MATRIX EXCHANGE =   2.6453846        MATRIX EXCHANGE =  0.52907693E-02
     PIPE RECHARGE =   0.0000000          PIPE RECHARGE =   0.0000000    
       PFP STORAGE =   0.0000000            PFP STORAGE =   0.0000000    

     CUMULATIVE IN =   2.6453846               TOTAL IN =  0.52907693E-02

           OUT:                               OUT:
     CONSTANT HEAD =   2.6453846          CONSTANT HEAD =  0.52907693E-02
   MATRIX EXCHANGE =   0.0000000        MATRIX EXCHANGE =   0.0000000    
     PIPE RECHARGE =   0.0000000          PIPE RECHARGE =   0.0000000    
       PFP STORAGE =   0.0000000            PFP STORAGE =   0.0000000    

    CUMULATIVE OUT =   2.6453846              TOTAL OUT =  0.52907693E-02

          IN - OUT =   0.0000000               IN - OUT =   0.0000000    
     PERCENT ERROR =  0.00                PERCENT ERROR =  0.00


 
 ------------------------NODE WATER BUDGET-----------------------
  STRESS PERIOD           5  TIME STEP          10
 TOTAL SIMULATION TIME   500.000000000000     
 
 FLOW TO THE NODE IN M^3/S
 
 NODE     FIXED HEAD     RECHARGE        QWELL  MATRIX EXCH      STORAGE      TUBE_IN     TUBE_OUT         CADS     FHLQ(LQ)       CAUCHY   CAUCHY(LQ)          QLH     IN - OUT
    1   -0.78540E-03   0.0000       0.0000      0.78540E-03   0.0000       0.0000       0.0000       0.0000       0.0000       0.0000       0.0000       0.0000       0.0000    
    2   -0.82202E-03   0.0000       0.0000      0.82202E-03   0.0000       0.0000       0.0000       0.0000       0.0000       0.0000       0.0000       0.0000       0.0000    
    3   -0.13272E-02   0.0000       0.0000      0.13272E-02   0.0000       0.0000       0.0000       0.0000       0.0000       0.0000       0.0000       0.0000       0.0000    
    4   -0.23562E-02   0.0000       0.0000      0.23562E-02   0.0000       0.0000       0.0000       0.0000       0.0000       0.0000       0.0000       0.0000       0.0000    
     1 CALLS TO PCG ROUTINE FOR TIME STEP  10 IN STRESS PERIOD    5
     1 TOTAL ITERATIONS

 MAXIMUM HEAD CHANGE FOR EACH ITERATION (1 INDICATES THE FIRST INNER ITERATION):

    HEAD CHANGE    HEAD CHANGE    HEAD CHANGE    HEAD CHANGE    HEAD CHANGE 
   LAYER,ROW,COL  LAYER,ROW,COL  LAYER,ROW,COL  LAYER,ROW,COL  LAYER,ROW,COL
 ---------------------------------------------------------------------------
  1 -0.9547E-15
   (  1,  3,  3)

 MAXIMUM RESIDUAL FOR EACH ITERATION (1 INDICATES THE FIRST INNER ITERATION):

    RESIDUAL       RESIDUAL       RESIDUAL       RESIDUAL       RESIDUAL    
   LAYER,ROW,COL  LAYER,ROW,COL  LAYER,ROW,COL  LAYER,ROW,COL  LAYER,ROW,COL
 ---------------------------------------------------------------------------
  1  0.6889E-19
   (  1,  2,  4)


1
              HEAD IN LAYER   1 AT END OF TIME STEP  10 IN STRESS PERIOD    5
  ---------------------------------------------------------------------------

          1         2         3         4         5
 ..................................................
   1    10.       10.       10.       10.       10.    
   2    10.       10.       9.8       10.       10.    
   3    11.       10.       9.9       10.       11.    
   4    11.       11.       11.       11.       11.    

 HEAD WILL BE SAVED ON UNIT   51 AT END OF TIME STEP    10 IN STRESS PERIOD      5



  -------------------------------------------------------------------------------------
  VOLUMETRIC BUDGET FOR ENTIRE MODEL AT END OF TIME STEP   10 IN STRESS PERIOD      5
  -------------------------------------------------------------------------------------

     CUMULATIVE VOLUMES      L**3       RATES FOR THIS TIME STEP      L**3/T
     ------------------                 ------------------------

           IN:                                      IN:
           ---                                      ---
             STORAGE =       8.3402E-16               STORAGE =       1.2468E-18
       CONSTANT HEAD =           2.7340         CONSTANT HEAD =       5.4679E-03
               PIPES =           0.0000                 PIPES =           0.0000

            TOTAL IN =           2.7340              TOTAL IN =       5.4679E-03

          OUT:                                     OUT:
          ----                                     ----
             STORAGE =       3.1171E-16               STORAGE =       1.2468E-18
       CONSTANT HEAD =       8.8571E-02         CONSTANT HEAD =       1.7714E-04
               PIPES =           2.6454                 PIPES =       5.2908E-03

           TOTAL OUT =           2.7340             TOTAL OUT =       5.4679E-03

            IN - OUT =      -1.3270E-09              IN - OUT =       1.4225E-16

 PERCENT DISCREPANCY =          -0.00     PERCENT DISCREPANCY =           0.00


          TIME SUMMARY AT END OF TIME STEP    10 IN STRESS PERIOD      5
                    SECONDS     MINUTES      HOURS       DAYS        YEARS
                    -----------------------------------------------------------
   TIME STEP LENGTH  10.000     0.16667     2.77778E-03 1.15741E-04 3.16881E-07
 STRESS PERIOD TIME  100.00      1.6667     2.77778E-02 1.15741E-03 3.16881E-06
         TOTAL TIME  500.00      8.3333     0.13889     5.78704E-03 1.58440E-05
 

 Final Remark:

   The solver successfully met the user supplied convergence criteria, HCLOSE and RCLOSE, for all 50 time steps.

   Please check the "VOLUMETRIC BUDGET FOR ENTIRE MODEL" to ensure that mass rate balance errors are acceptable for all time steps.

   The cumulative mass error for the entire simulation is 0.00 %




 Simulation finished at  


 Which had an elapsed run time of: 0.0 seconds


    OneWater Simulation Now Complete


